232

 C        -7.0085032374        6.1613921811      -13.2698957116
 C        -5.6306849465        6.4993818361      -12.7109711747
 O        -5.0335003448        5.7466726573      -11.9811259263
 C        -4.7333147561        7.7486624124      -13.1028394613
 C        -3.3751653924        7.0807097882      -13.7010211125
 O        -2.4243391295        6.8044051107      -12.9715168148
 C        -3.2396340195        6.6065406168      -15.1251219716
 C        -2.0959283821        5.5752592525      -15.4188878724
 C        -2.6479425219        4.2006669780      -15.0211685760
 O        -3.8202736601        3.9878506208      -14.8496911793
 C        -1.6471987096        3.0260467258      -14.7876802139
 C        -0.4788106519        3.4995039120      -13.9995876552
 O        -0.8294706278        4.0556302091      -12.9654610963
 C         0.9275538957        3.3611096912      -14.4364705153
 C         1.7969822729        4.4663106647      -13.7743011562
 C         1.8128510833        5.7248560681      -14.5648429651
 O         0.7092093694        6.2465254515      -14.6437268228
 C         3.0171671770        6.4726240088      -15.1181594232
 C         3.8739463974        7.1014746726      -13.8520335243
 O         5.0482742097        6.8537763960      -13.6943216824
 C         3.1769545964        8.1882938418      -12.9614939586
 C         3.4911481610        8.0913907769      -11.4275372619
 C         3.2153938031        6.7193757168      -10.8150500321
 O         2.8765837499        5.7156081386      -11.4580044377
 C         3.3457272386        6.5619344451       -9.3045390653
 C         2.1156782648        5.7166456403       -8.8355753996
 O         2.2323857115        4.6932747222       -8.1745268226
 C         0.7406458094        5.9668161820       -9.4114199097
 C        -0.3628882105        5.5928182203       -8.4472312200
 C        -1.7529648013        5.7557209959       -8.9511326528
 O        -2.0799627479        6.3607824368       -9.9390933442
 C        -2.9677294359        4.9864413149       -8.1608273199
 C        -2.8315626725        3.4824976136       -8.6268831501
 O        -2.7110950865        3.2005643521       -9.7530729991
 C        -2.7141291792        2.3813473744       -7.5204508558
 C        -2.3821669203        1.0507233216       -8.2606377376
 C        -3.5365568849        0.5421634126       -9.1502626231
 O        -4.6076358378        1.0975454717       -9.1844330312
 C        -3.2330027275       -0.7018295941      -10.0516654018
 C        -3.1112178249       -1.7717591212       -8.9943315515
 O        -2.0070270736       -2.0787942118       -8.6014497527
 C        -4.2677460024       -2.3719217311       -8.3333947843
 C        -3.7081157080       -2.8087254431       -6.9467822246
 C        -2.9653947229       -4.0826970383       -7.0338884720
 O        -3.4379939141       -4.9291447044       -7.7715486268
 C        -1.6775326209       -4.2962089596       -6.3285457138
 C        -0.4146576507       -4.4190703001       -7.3498615334
 O        -0.5234497997       -5.0896980303       -8.3585542589
 C         0.9807790863       -4.0746556418       -6.7444998183
 C         2.0775590710       -4.9070229979       -7.4165003181
 C         2.0292131502       -6.3900746316       -6.9891523049
 O         1.0585680048       -6.8805408064       -6.3857763143
 C         3.0710631161       -7.4690702963       -7.5717845402
 C         2.1771982391       -8.2376891566       -8.5799527430
 O         1.8851410243       -7.8060158510       -9.6824041932
 C         1.4487533255       -9.5610649602       -8.1676345851
 C         0.6365792334      -10.1744557235       -9.3210017949
 C        -0.3508161754       -9.1129700103       -9.7746555357
 O        -0.7218790148       -8.1357263679       -9.0898227483
 C        -1.0168814829       -9.2452528219      -11.1174095628
 C        -2.5500813881       -8.7585905622      -10.9526802936
 O        -2.7637824953       -7.6169701885      -11.2642288264
 C        -3.5998994953       -9.6878985043      -10.3499117351
 C        -4.7283355103       -8.8932247322       -9.4280745411
 C        -4.2681748112       -8.7798792686       -7.9983532066
 O        -3.5020274479       -7.8558815018       -7.5829526352
 C        -4.8822786090       -9.8028591513       -7.0124358684
 C        -6.4435774316       -9.5519571425       -6.9978242676
 O        -7.1863191896      -10.4199243463       -7.3750169229
 C        -7.0712537493       -8.2309353590       -6.3549855854
 C        -8.6948951315       -8.3247087534       -6.3980341513
 C        -9.1495940308       -8.3508398662       -7.8583706550
 O        -8.5195652036       -7.6895182798       -8.6943291616
 C       -10.3612297646       -9.3405284897       -8.3967792532
 C       -11.6969182294       -8.5628954014       -8.1666708104
 O       -12.2529580880       -8.5305359385       -7.1130896728
 C       -12.2840731493       -7.6794064943       -9.3789781313
 C       -13.6516849717       -7.1579029161       -8.9563712340
 C       -14.0791740095       -5.8301892019       -9.6122263298
 O       -13.2181622289       -5.0812541874       -9.9603994099
 C       -15.4954791009       -5.6472304525      -10.2427505469
 C       -15.3816816769       -6.4722557294      -11.6370602091
 O       -14.3764586247       -7.1089176411      -11.7965206765
 C       -16.3508051292       -6.3771999389      -12.8280305193
 C       -16.6642866464       -6.0318974648       -9.3321623770
 C       -15.7638146866       -4.1556154852      -10.5792046542
 C        -9.9388014279       -9.6773749041       -9.8736002841
 C       -10.2937658098      -10.6903167373       -7.6169673632
 C        -4.6910124362      -11.2875162101       -7.4588860790
 C        -4.4415302318       -9.6209068924       -5.5534997818
 C        -0.2845472365       -8.1542673715      -11.9623430296
 C        -0.8677633041      -10.6391996873      -11.8026555686
 C         4.3867929394       -7.0679540242       -8.3375302662
 C         3.4077160616       -8.2378604038       -6.2985314106
 C        -1.4336741092       -3.0575842745       -5.2978682285
 C        -1.6969254631       -5.6434013056       -5.6375469251
 C        -4.4263757337       -0.8487639757      -11.0948496545
 C        -1.8914815312       -0.4573367200      -10.8078142515
 C        -2.9766980156        5.1166247726       -6.5970809101
 C        -4.3744877278        5.4512778211       -8.6431304605
 C         4.6649105336        5.7827025901       -9.0389058490
 C         3.5157582239        7.9247308443       -8.4870795645
 C         4.1947003300        5.7049425766      -15.8229724889
 C         2.6667839762        7.6680423161      -16.0082510180
 C        -2.3869665697        1.8811382201      -14.0193514091
 C        -1.2091637199        2.3291230958      -16.0899422224
 C        -5.3793687754        8.6962353448      -14.1380403622
 C        -4.3500998771        8.4420851652      -11.7835560067
 H        -7.7730140143        6.7271391875      -12.6545547293
 H        -7.2631357730        5.0882604143      -13.1735302341
 H        -6.9674461974        6.4172571884      -14.3374716475
 H        -3.0076309722        7.5703526861      -15.6380256513
 H        -4.1402844757        6.2139223582      -15.5978767938
 H        -1.2513878368        5.8024688498      -14.8358379841
 H        -1.9213615525        5.5744139336      -16.5162385412
 H         0.9084934484        3.3213541347      -15.4977388980
 H         1.3697917039        2.4641748596      -13.9918033262
 H         2.7856073216        4.0286442373      -13.7378787345
 H         1.4191497122        4.6394403200      -12.7704140000
 H         2.1262064361        8.2582777678      -13.1753452074
 H         3.4801032640        9.2173085566      -13.2002797499
 H         2.6959772322        8.7888487019      -11.1029265203
 H         4.5256991767        8.3588228751      -11.1164802056
 H         0.8256199357        5.2788530237      -10.2580270638
 H         0.6466333512        7.0071295872       -9.7853540217
 H        -0.1726374326        6.0981147229       -7.5401774330
 H        -0.1577220524        4.5361441269       -8.1236749666
 H        -3.6699417776        2.3387009234       -6.9379225498
 H        -1.9217107142        2.6485663320       -6.8721936947
 H        -1.9462509078        0.2750468616       -7.5373323379
 H        -1.5718831393        1.3079987323       -8.9206219042
 H        -4.5641024639       -3.2869021960       -8.9112276490
 H        -5.1215763612       -1.7828377807       -8.3898280850
 H        -4.5293221930       -2.9999512091       -6.1988836537
 H        -3.2263664032       -2.0207208326       -6.4728387378
 H         0.9572415726       -4.2218106892       -5.6280803286
 H         1.0961617269       -3.0282544300       -7.0672818606
 H         3.0748207325       -4.5417584226       -7.0700427229
 H         2.0210673579       -4.9393965308       -8.4996618453
 H         0.6976015484       -9.2905855370       -7.2543638892
 H         2.2793757498      -10.2551629095       -7.8933903364
 H        -0.0123099099      -11.0075849625       -9.0754051695
 H         1.3005146650      -10.4009951908      -10.2061205155
 H        -3.0961150260      -10.3784864850       -9.5576965544
 H        -4.0711982035      -10.1706889778      -11.2335159229
 H        -5.7016172963       -9.5018906343       -9.6088529565
 H        -4.8529547371       -7.8653835154       -9.8946985959
 H        -6.7874743810       -7.3118065135       -6.9230165379
 H        -6.8800489010       -8.1477336674       -5.2723971076
 H        -9.0954821545       -7.4488983977       -6.0185310055
 H        -9.0891595290       -9.2314853637       -6.0310556849
 H       -12.2509601864       -8.4031705382      -10.2268465609
 H       -11.5066971277       -6.8593988669       -9.4465553351
 H       -13.7592180803       -7.0231214303       -7.8033335043
 H       -14.3774114615       -7.9390026316       -9.0618635784
 H       -16.0484443878       -7.1405712620      -13.5557020093
 H       -16.4304191345       -5.4753881586      -13.4012676951
 H       -17.3021395216       -6.7804585685      -12.5024749061
 H       -16.6191300818       -5.4610255628       -8.4175404825
 H       -16.5208460409       -7.0210990408       -8.8434100672
 H       -17.7102131583       -5.8259872445       -9.7428072163
 H       -16.6067717600       -4.0087447198      -11.3473338183
 H       -14.8694947224       -3.7771901532      -11.0309655578
 H       -16.1105328819       -3.5778884944       -9.7212283406
 H       -10.7778710861      -10.0640264310      -10.4211842571
 H        -9.1196650638      -10.5135430090       -9.7098900651
 H        -9.4361724669       -8.8641286201      -10.4387694128
 H       -10.4496668475      -10.6494761541       -6.6206229969
 H        -9.2910477815      -11.0060849188       -7.8714384845
 H       -10.9765460962      -11.3573800615       -8.0983349681
 H        -5.5546818725      -11.9018908455       -7.2562656876
 H        -3.7794048829      -11.7402890479       -7.1229421768
 H        -4.7237176295      -11.2944028776       -8.5590565829
 H        -3.4484321206       -9.8781959301       -5.3663775137
 H        -5.0138179017      -10.3264091926       -4.9962244765
 H        -4.5878162529       -8.6500014698       -5.0768703533
 H         0.7483601438       -8.3140714506      -11.6306093727
 H        -0.6086789566       -7.2229787500      -11.5854277986
 H        -0.4857698738       -8.3266107207      -12.9876339037
 H         0.1240533635      -10.5513876607      -12.2996958125
 H        -1.5975577450      -10.7225375599      -12.5863025882
 H        -1.0246451439      -11.5687769058      -11.2393022541
 H         4.2666837014       -6.5361672926       -9.2528368824
 H         4.9692958023       -7.9509111030       -8.4256643486
 H         5.0310869231       -6.4578233138       -7.6864003592
 H         2.4770935559       -8.5949894656       -5.9529746515
 H         3.7122939815       -7.5153668831       -5.5233450229
 H         4.0978896495       -9.0972325501       -6.4733165152
 H        -0.7736400897       -3.5219967268       -4.5645800280
 H        -2.2794437033       -2.6022128172       -4.7898528207
 H        -0.7540395350       -2.3884184765       -5.8115318294
 H        -1.5230645263       -6.4605667229       -6.3813042142
 H        -2.6908598085       -5.7658646312       -5.1424562082
 H        -0.9659022737       -5.8134900087       -4.8745204723
 H        -4.6345272271        0.1353237627      -11.4585058401
 H        -5.2647012864       -1.3021534216      -10.5952746305
 H        -4.0943324380       -1.3909915261      -11.9518215196
 H        -1.1765245393        0.0289082190      -10.1054917213
 H        -2.1581198651        0.1275915629      -11.6365683242
 H        -1.3954345588       -1.3748963820      -11.0364613731
 H        -2.7837131420        6.1712690762       -6.4382730412
 H        -2.3476393832        4.4442651341       -6.0201534613
 H        -4.0151076655        5.0505209389       -6.1483928688
 H        -5.1442219363        4.6659916508       -8.4072853030
 H        -4.3243990395        5.6846230135       -9.7227909835
 H        -4.6196071804        6.4639089026       -8.2087979546
 H         5.3941614895        5.8903378394       -9.9166768800
 H         4.4567529932        4.7585165927       -8.9234862759
 H         5.0786317416        6.2036766058       -8.1357284941
 H         4.2328990908        8.5674259004       -8.9703431266
 H         3.8190026674        7.9052329051       -7.4293418135
 H         2.6554614404        8.5595484305       -8.3679356316
 H         4.9556061646        6.3832330802      -16.1615180730
 H         3.8534597849        5.0715088200      -16.6949332572
 H         4.5543130494        4.9797095792      -15.1015602507
 H         1.7590949469        7.4811471644      -16.4788512655
 H         3.4718970834        7.7942231666      -16.7361377746
 H         2.5541193399        8.5711540734      -15.4791227475
 H        -2.6899456859        2.0950027616      -12.9871879386
 H        -1.6838542869        1.0533499802      -13.8493790297
 H        -3.2303213106        1.5937747018      -14.5708448779
 H        -0.9580571210        3.0454281964      -16.8285472922
 H        -2.0099541174        1.7818447936      -16.4422930274
 H        -0.3810128645        1.5799252077      -15.9141188457
 H        -5.3335859366        8.1787785154      -15.0654091205
 H        -4.9559712434        9.7142137833      -14.2257287445
 H        -6.4385117068        8.8751166558      -13.9001051928
 H        -3.6328461989        7.7554025058      -11.3367554584
 H        -5.1816614314        8.7290178800      -11.1930035912
 H        -3.8971757967        9.3924463389      -12.0280309705
 Na       -2.6473590250        4.5614380394      -11.6421793765
 Na       -2.2857601318       -6.4352944507       -9.1130584507
