232

 C        -7.1101384263        6.5687526796      -12.8565057755
 C        -5.5962607216        6.5363220842      -12.7406479276
 O        -4.9828911531        5.7340599889      -12.1020337408
 C        -4.6431539170        7.6658320723      -13.5007701435
 C        -3.2594944271        7.1055453404      -14.0777371425
 O        -2.5240871265        6.6230921521      -13.2324103942
 C        -2.9303418541        6.9892884389      -15.5552813260
 C        -2.0287044060        5.7345410579      -15.7332803514
 C        -2.6963399169        4.4194911605      -15.0969392901
 O        -3.9085599520        4.3945436820      -14.8883467845
 C        -1.7275272344        3.2367476550      -14.7315284413
 C        -0.4127514863        3.6402465768      -13.8868008963
 O        -0.4011634146        4.2455612491      -12.8178625141
 C         0.8539143631        3.1836740813      -14.5202200004
 C         2.1367865179        3.9707630647      -14.3809799604
 C         2.0299655980        5.4234771503      -14.8910121095
 O         0.9260560743        5.9534663178      -14.9704737398
 C         3.3177212709        6.3145062872      -15.1766878356
 C         3.8120830693        6.9933393402      -13.8640049355
 O         5.0324232995        7.0148357150      -13.7315046480
 C         2.9088956472        7.7978341689      -12.9595707906
 C         3.4593423030        7.8885589296      -11.5888148191
 C         3.2828733744        6.6031467840      -10.8353144633
 O         3.3375772767        5.5717701249      -11.4852750408
 C         3.2681747992        6.4692722850       -9.2869532204
 C         2.0561028609        5.5085162712       -8.8746230337
 O         2.2294557474        4.6014765749       -8.1324599030
 C         0.6370563673        5.7876394260       -9.3771754604
 C        -0.3758834088        5.8600189831       -8.2461267498
 C        -1.8047422650        5.8392328417       -8.8748844186
 O        -1.9154624082        6.0380107136      -10.0506561896
 C        -3.0015533741        5.1306331178       -8.1224464123
 C        -2.6969150342        3.5784018740       -8.5608644631
 O        -2.5206283620        3.2225023416       -9.6548829623
 C        -2.6528340301        2.5724348519       -7.3732911142
 C        -2.5103146519        1.1595261998       -7.8550342096
 C        -3.4861014501        0.7550075445       -8.9490172311
 O        -4.5878691700        1.2744093947       -8.9300798565
 C        -3.1714705491       -0.4840039173       -9.8325688249
 C        -3.0868570898       -1.7480082163       -8.9200459036
 O        -2.1375588836       -2.4923719761       -8.9466962096
 C        -4.1851695229       -1.9952015285       -7.9679181374
 C        -3.8169890797       -2.8401064277       -6.7730829696
 C        -3.0106880285       -4.0195508056       -7.1826756164
 O        -3.4766549797       -4.7559601241       -8.0112964957
 C        -1.8245598339       -4.2889068806       -6.3175610262
 C        -0.5840939769       -4.4807993394       -7.3135508405
 O        -0.7383261396       -5.0605496519       -8.3839944567
 C         0.8438781065       -4.0169475726       -6.9736979758
 C         1.8033917982       -5.0845436353       -7.6837328593
 C         1.8741210349       -6.5249261607       -6.9554805962
 O         1.0360377381       -6.9249393509       -6.1523319587
 C         3.0088582772       -7.4732752961       -7.4437201223
 C         2.4094414441       -8.1415876972       -8.7148221839
 O         2.5180319980       -7.5636975663       -9.7359310892
 C         1.7372332405       -9.4948496368       -8.5529795286
 C         0.7967028891       -9.9046228610       -9.7163621453
 C        -0.5287246525       -9.1872797644       -9.8112812159
 O        -0.8989827898       -8.5023285447       -8.8973168166
 C        -1.3875767780       -9.1442050010      -11.2054341525
 C        -2.7541407877       -8.5023434645      -10.8794226721
 O        -3.0250407293       -7.3338924238      -10.9295897991
 C        -3.6761335383       -9.5752415280      -10.2127396565
 C        -4.9309979914       -9.1178822240       -9.3290951391
 C        -4.4062768781       -8.9539830543       -7.9847609728
 O        -3.6726995313       -8.0591976747       -7.5972062459
 C        -4.9457491755       -9.9332174052       -6.8742197098
 C        -6.5436115626       -9.7455375608       -6.8561688510
 O        -7.1475509314      -10.6575302486       -7.3227341729
 C        -7.1600399988       -8.4162894214       -6.2802232023
 C        -8.7159895213       -8.3676777962       -6.4014271288
 C        -9.2335179668       -8.2719254037       -7.8277668730
 O        -8.9658275228       -7.3139908794       -8.5794563888
 C       -10.1227516045       -9.3572845560       -8.4002869460
 C       -11.6135842537       -8.6201442885       -8.1641997809
 O       -12.1003210693       -8.5344745484       -7.0761817999
 C       -12.1808812146       -7.8176601897       -9.3723657384
 C       -13.6084085383       -7.4498664644       -9.1594586584
 C       -13.7663599898       -6.0238156008       -9.6609629013
 O       -12.9186282363       -5.2020102659       -9.3746596505
 C       -15.1969486621       -5.7630062345      -10.2785698892
 C       -15.5322778401       -6.6555146528      -11.5663095215
 O       -14.7697687182       -7.4811925796      -12.0375678232
 C       -16.8530831168       -6.3248292714      -12.2221056961
 C       -16.1985231251       -6.3275407575       -9.3268074305
 C       -15.4006523334       -4.1854497538      -10.3286668818
 C        -9.6632111890       -9.6003628911       -9.8703787477
 C       -10.1525837194      -10.7407718640       -7.6713477641
 C        -4.5587001917      -11.4411643709       -7.2550484465
 C        -4.4241760139       -9.5609683069       -5.5226053441
 C        -0.6637056683       -8.0951620966      -12.1489499959
 C        -1.3626628121      -10.5441970181      -11.8892642181
 C         4.3484067185       -6.7871220404       -7.8014113163
 C         3.3226384773       -8.4971884724       -6.1784312295
 C        -1.5916520382       -3.2520401207       -5.1830772136
 C        -2.0169033443       -5.7182176277       -5.7430991091
 C        -4.2794711440       -0.6171070356      -10.8372427714
 C        -1.8730370010       -0.0837056953      -10.6363207022
 C        -2.9002602448        5.4037427786       -6.6152143821
 C        -4.3391695311        5.6115132450       -8.7381925946
 C         4.6175696717        5.8344993655       -8.8545084045
 C         3.0939324781        7.7658965279       -8.5171628056
 C         4.4633680534        5.5246758612      -15.9363738734
 C         3.0820616509        7.5096298170      -16.0588714131
 C        -2.3570185909        2.2370426902      -13.7921502103
 C        -1.4720644417        2.7460980108      -16.1744980315
 C        -5.3027289547        8.3975686890      -14.6567528077
 C        -4.1500057478        8.6582084204      -12.3483744252
 H        -7.4879986945        7.5565368634      -12.9819823475
 H        -7.4770641925        6.1687140434      -11.9422547935
 H        -7.3576544361        5.9535030404      -13.6917568246
 H        -2.4608702000        7.8649568152      -16.0208038595
 H        -3.8970040440        6.8358702706      -16.0476191957
 H        -1.0807620539        5.9341853206      -15.3347973984
 H        -2.0655294481        5.5051296058      -16.8422045079
 H         0.6951199911        3.1129603633      -15.5636622140
 H         0.9332158743        2.1205345504      -14.2557551250
 H         2.8679975788        3.4932482141      -15.0113913956
 H         2.5526330910        3.9986241198      -13.3350846126
 H         1.9072128537        7.3847768851      -13.0197476493
 H         2.9071412650        8.7813968694      -13.4694530417
 H         2.9431479037        8.6334093544      -10.9892036028
 H         4.5218054581        8.1365638338      -11.6984311876
 H         0.2511123471        4.9089075091       -9.9265115452
 H         0.5776065611        6.6887391046       -9.9967930554
 H        -0.2247809650        6.6602539427       -7.6112866645
 H        -0.3150414741        5.0046275359       -7.5565997694
 H        -3.5441432521        2.7503381950       -6.7290941649
 H        -1.7882939071        2.7796671970       -6.7737871112
 H        -2.5362488563        0.4563744822       -7.0052877366
 H        -1.5423713042        1.1164172724       -8.2080521139
 H        -5.0179957011       -2.3795222854       -8.4995934756
 H        -4.5617643374       -0.9880446904       -7.5896005021
 H        -4.6968274386       -3.1700288576       -6.1551510438
 H        -3.3005046968       -2.1625367560       -6.0734356192
 H         1.0110444389       -3.7710960866       -5.9098343572
 H         1.0399388670       -3.1824737493       -7.6140246744
 H         2.8496868637       -4.6762656223       -7.6214120849
 H         1.5353747096       -5.1367984591       -8.7264489076
 H         1.2725629090       -9.6305246172       -7.4879175456
 H         2.5736994976      -10.2538770340       -8.5838725014
 H         0.6512331876      -10.9592611501       -9.6278697223
 H         1.2858085978       -9.6094328911      -10.6512918806
 H        -2.9453988981      -10.2088451234       -9.5234036865
 H        -4.0821520617      -10.2315184377      -11.0247205468
 H        -5.6990867503       -9.9683371211       -9.3776155474
 H        -5.4314594503       -8.2667198455       -9.8185594118
 H        -6.8044738282       -7.5848511218       -6.9008587872
 H        -6.9617263607       -8.3004013553       -5.2285103641
 H        -9.1679078109       -7.5018068164       -5.9845063650
 H        -9.0809570036       -9.2816723269       -5.9563373712
 H       -12.0702297558       -8.4213330761      -10.3513990726
 H       -11.5485721485       -6.9324376124       -9.4353983580
 H       -13.8595294896       -7.2879259536       -8.0436968341
 H       -14.2747719027       -8.1456366392       -9.6145516535
 H       -17.1573010563       -6.8708214172      -13.1021761798
 H       -16.9111613057       -5.2533545019      -12.3909827398
 H       -17.6174044461       -6.6409305226      -11.4745400106
 H       -15.9418294299       -6.0663646127       -8.3480933317
 H       -16.3238045307       -7.4278877194       -9.3607408249
 H       -17.2608290479       -6.0073201070       -9.5497266766
 H       -16.5689142848       -4.1347726739      -10.1662744131
 H       -15.2696250786       -3.7389268269      -11.2935551139
 H       -14.7899254877       -3.6993816248       -9.5953251481
 H       -10.1642068090      -10.4257230563      -10.3096261548
 H        -8.5661608996       -9.7673274908      -10.0292208187
 H        -9.8925250655       -8.7017347438      -10.3841236300
 H       -10.6440336818      -10.6327738018       -6.7547913695
 H        -9.1686883674      -11.0783446769       -7.5037368204
 H       -10.7237838177      -11.4039944935       -8.3366732932
 H        -4.3737350336      -12.1258159965       -6.4626197321
 H        -3.6059081559      -11.3724558849       -7.7611111525
 H        -5.3349150541      -11.8607326336       -7.8924176740
 H        -3.3775228387       -9.9071486145       -5.4862654418
 H        -4.9352223462      -10.0986856445       -4.7604037314
 H        -4.4130278241       -8.4817459197       -5.2200624123
 H         0.2321356078       -8.6315374401      -12.5329139284
 H        -0.4731470351       -7.1975917354      -11.6064699688
 H        -1.3826506630       -8.0294935102      -12.9462239461
 H        -0.3813568380      -10.8564534246      -12.4001704040
 H        -2.0251212629      -10.4819165599      -12.7323031904
 H        -1.5926599251      -11.3383273697      -11.2095986789
 H         4.3073353598       -6.3689468378       -8.8219048263
 H         5.1277352778       -7.4731759371       -7.6156318091
 H         4.5252777678       -5.9591555269       -7.0674510142
 H         2.4164867248       -8.9191796134       -5.8611182520
 H         3.8376698345       -7.9116370438       -5.4186781174
 H         3.9493982799       -9.2797752996       -6.5722025230
 H        -0.8346636732       -3.7479000375       -4.5216710662
 H        -2.3932270579       -2.9533175045       -4.5291743500
 H        -1.1760283500       -2.4165180036       -5.7612400904
 H        -2.7993812976       -5.5974816808       -4.9968631971
 H        -1.1110822090       -6.0223410052       -5.1557689246
 H        -2.1407561422       -6.6132244718       -6.3475994211
 H        -4.1387534453        0.1533379972      -11.5626344337
 H        -5.1760178144       -0.4993825371      -10.3753367847
 H        -4.2750475242       -1.6418661179      -11.2267262124
 H        -0.9659305227       -0.4103658305      -10.1188190195
 H        -1.9758456634        0.9513105768      -10.7461963421
 H        -1.9551659083       -0.4673548081      -11.6274259500
 H        -3.3520005805        4.5385197366       -6.1614536455
 H        -3.5025909031        6.3332826042       -6.4651744179
 H        -1.8741443212        5.5670007424       -6.2073042899
 H        -5.1263398686        5.3424977085       -8.0655445484
 H        -4.5024631527        5.0556027068       -9.6886780681
 H        -4.4455560669        6.7316658285       -8.7070984777
 H         4.6577638255        4.7361461004       -8.9108393834
 H         4.7581871618        6.0589554557       -7.8515472570
 H         5.3484876071        6.4179105851       -9.3508920121
 H         3.9166417695        8.4534300724       -8.4561655779
 H         2.6479632830        7.5359379757       -7.4622075128
 H         2.3892697329        8.4642560701       -8.9642983397
 H         5.2203983908        6.1695075652      -16.2292249270
 H         4.0403447086        4.9072047477      -16.7761779529
 H         4.9150579144        4.8235453077      -15.2544852004
 H         3.1839402723        7.1363309391      -17.0312286191
 H         3.9793018060        8.0683076859      -15.9064737078
 H         2.2481977882        8.1366513494      -16.0257412202
 H        -2.4842914843        2.6593664871      -12.7466759931
 H        -1.6469253946        1.3475404842      -13.5295224517
 H        -3.2459882607        1.8361458495      -14.2314929101
 H        -1.2210104123        1.6887662340      -16.3006392687
 H        -0.7020504911        3.3110571837      -16.6390084208
 H        -2.4083927671        3.0123267896      -16.7227523564
 H        -5.7471065123        7.6599709317      -15.3045258157
 H        -4.5745773843        9.0489954361      -15.1582726883
 H        -6.1628551016        8.9831644431      -14.3014922300
 H        -3.5989769095        8.2052751142      -11.5159495177
 H        -4.9776444377        9.2066921607      -12.0830504440
 H        -3.5531414954        9.3810235638      -12.9235551916
 Na       -2.7152456488        4.8956928104      -11.7615309789
 Na       -2.4759950604       -6.5687699828       -8.9079632961
