232

 C        -6.9324602279        6.7840781210      -12.8186486068
 C        -5.4568859683        6.5201195118      -12.7953900295
 O        -4.9947941377        5.6360311315      -12.1123598284
 C        -4.6159585849        7.6096625593      -13.6991203994
 C        -3.3182324811        6.9852988775      -14.1915851345
 O        -2.4062339740        6.7662357061      -13.3788752160
 C        -2.9260567915        6.9619619679      -15.6714994658
 C        -2.0289089045        5.7279123452      -15.7927732411
 C        -2.7146886454        4.5959367763      -14.9666232209
 O        -3.9183704601        4.5777375050      -14.7896693547
 C        -1.7382069569        3.3942509509      -14.7268852762
 C        -0.4274648374        3.7322859487      -13.9457312254
 O        -0.4410838018        4.2605220784      -12.8396873383
 C         0.8880795810        3.0660830730      -14.5902026293
 C         2.1708985738        3.9663439529      -14.5828196719
 C         2.0046680636        5.4318269356      -15.0504379389
 O         0.9445110738        6.0348584799      -15.1426901977
 C         3.3507823922        6.1946556592      -15.2282601591
 C         3.8927295344        6.9121008846      -13.8973201542
 O         5.0489526426        6.9514449302      -13.6555314407
 C         2.8686635072        7.6946648702      -12.9434901822
 C         3.4542496819        7.9490572255      -11.5580364603
 C         3.4296365218        6.5224278584      -10.7956169410
 O         3.3906522065        5.5056674550      -11.4290449545
 C         3.3099625722        6.5264986130       -9.1937112116
 C         2.1074982470        5.5451656490       -8.8402751917
 O         2.2604712493        4.5727168129       -8.1374980429
 C         0.6747791683        5.6943579597       -9.4702580757
 C        -0.3631861029        5.9332976134       -8.2779096859
 C        -1.8063333123        5.7691731440       -8.8406137894
 O        -2.0102291310        6.0925213861      -10.0371607283
 C        -3.0057821022        5.1423683182       -8.0910612211
 C        -2.7541851458        3.6225482276       -8.4895474593
 O        -2.4637387807        3.4723712427       -9.6751815269
 C        -2.6195441633        2.6266436042       -7.3927259557
 C        -2.3845983843        1.2253142478       -7.9182136121
 C        -3.6146668766        0.7959033562       -8.7321633933
 O        -4.6463012720        1.4358067560       -8.8842544130
 C        -3.2536136631       -0.3883034488       -9.7701958983
 C        -3.0110582353       -1.6685209334       -8.9079613194
 O        -2.0840308556       -2.4612618759       -9.0177678333
 C        -4.3118445688       -1.9792928813       -8.0369114700
 C        -4.0014640335       -2.7124677310       -6.7314778176
 C        -3.2195791789       -3.9590263207       -7.1464924015
 O        -3.5499749007       -4.6489790075       -8.0739306840
 C        -1.7383783898       -4.3514628270       -6.2768753814
 C        -0.6362218126       -4.5390576099       -7.3617170413
 O        -0.8166738688       -5.3086857642       -8.2928706837
 C         0.8051463614       -4.1192526930       -7.0297966612
 C         1.7976552970       -5.1410394754       -7.6497228037
 C         1.8845264451       -6.4782309108       -6.9158461121
 O         1.1309952720       -6.8292772198       -6.0665790255
 C         3.0674171556       -7.4498337063       -7.4088540842
 C         2.4863135410       -8.2078246938       -8.7552141190
 O         2.6569591180       -7.5719086199       -9.7577581924
 C         1.7261754737       -9.5608136846       -8.6823036263
 C         0.9049590500       -9.8502353505      -10.0283676918
 C        -0.4796208594       -9.1139693322       -9.8901396550
 O        -0.8505115719       -8.5560844561       -8.8899558867
 C        -1.4141381508       -9.0846293622      -11.1890668772
 C        -2.8232294697       -8.5521776983      -10.7482294005
 O        -3.1381959317       -7.3672138740      -10.7474943270
 C        -3.7915966290       -9.6657276496      -10.3171143012
 C        -4.9254107816       -9.1415761115       -9.3930386051
 C        -4.4818013290       -8.9278396384       -7.9062937201
 O        -3.7474819404       -8.0682446715       -7.5857080043
 C        -4.9096026973       -9.9699640008       -6.7433802385
 C        -6.6079887382       -9.8829832030       -6.7455914361
 O        -7.2996505915      -10.6925068678       -7.3738733710
 C        -7.0808632320       -8.6022138571       -6.2926979432
 C        -8.6111691078       -8.4063270296       -6.3026462564
 C        -9.1813828350       -8.3118916097       -7.7945622563
 O        -8.9227540539       -7.3534571212       -8.4701549113
 C       -10.1768382698       -9.4322634225       -8.3936296655
 C       -11.4793829300       -8.6977724954       -8.2519774331
 O       -11.9772154780       -8.6447754425       -7.1229868375
 C       -12.0394505200       -7.9490001315       -9.4188725851
 C       -13.4870364121       -7.5746259681       -9.2321262901
 C       -13.8370085976       -6.0920741265       -9.6038593922
 O       -13.0813451178       -5.1493785618       -9.4211706902
 C       -15.2391112054       -5.7593809341      -10.2516196796
 C       -15.5475417158       -6.5615670054      -11.6529649465
 O       -14.8880095507       -7.5079658160      -12.0481496553
 C       -16.9410875891       -6.2797433171      -12.1430568441
 C       -16.2004530037       -6.2664100183       -9.1454106178
 C       -15.3461342448       -4.2350406467      -10.3490026800
 C        -9.7620642070       -9.5289858471       -9.8476445439
 C       -10.1210889267      -10.7901130140       -7.6010280224
 C        -4.5384494965      -11.3990686045       -7.1590189992
 C        -4.3879495969       -9.5327686527       -5.4095401048
 C        -0.6364550665       -8.0610897277      -12.1378687657
 C        -1.4992482573      -10.4470416412      -11.9185828369
 C         4.3721585704       -6.7047583582       -7.7368259481
 C         3.1792668486       -8.4126388384       -6.1458656522
 C        -1.5310447081       -3.3495648593       -5.1553696631
 C        -1.9528930425       -5.8083448956       -5.7618306977
 C        -4.3622893319       -0.6168374834      -10.8473082707
 C        -1.8204575704       -0.0914406971      -10.4134732454
 C        -2.9349927330        5.4029409798       -6.5366800218
 C        -4.2644677160        5.6703343012       -8.8022544430
 C         4.6209570194        5.7996192100       -8.7754944162
 C         3.1069969474        7.8425009199       -8.5113572597
 C         4.6136630371        5.4207592323      -15.7108717063
 C         2.9664464501        7.4071635963      -16.2171799277
 C        -2.3924431415        2.2321360536      -13.8002770563
 C        -1.5570000726        2.8436550909      -16.1666583541
 C        -5.4526813047        8.4103413900      -14.7706738297
 C        -4.1510801851        8.5579253916      -12.5314704186
 H        -7.1708268727        7.7122032073      -13.2911082467
 H        -7.0891194123        6.9489200288      -11.7251166502
 H        -7.5608287353        5.9633131578      -13.2337517830
 H        -2.2815662191        7.8062636679      -15.8914745351
 H        -3.8071920926        7.0343977805      -16.3469134822
 H        -1.1201666399        6.0150224750      -15.3020758016
 H        -1.9136839944        5.4626096496      -16.8322013386
 H         0.6941637790        2.4741679008      -15.5131155532
 H         1.0437856332        2.2425078031      -13.8889860138
 H         2.9473647610        3.5545258441      -15.1506645444
 H         2.5311739036        3.9913704541      -13.5267795781
 H         1.9709018854        7.0739363090      -12.8147891996
 H         2.6283249315        8.5181987108      -13.5730499594
 H         2.9374733248        8.6781159959      -10.9472463560
 H         4.5458068822        8.2606194879      -11.7230460179
 H         0.2603363366        4.7727086872       -9.9891289063
 H         0.6074827248        6.5511683073      -10.0772237040
 H        -0.2254482819        6.9681994683       -7.8651178319
 H        -0.2949599374        5.3064819653       -7.4167193358
 H        -3.5702484598        2.7036766560       -6.9638665669
 H        -1.8876554777        2.9383294753       -6.6110219013
 H        -2.2510804234        0.4626479049       -7.0888916341
 H        -1.4152838007        1.1864500208       -8.5214895766
 H        -4.8922914116       -2.5984306166       -8.6206501619
 H        -4.9863097498       -1.0413335234       -7.8141369520
 H        -4.8272592330       -2.9886339579       -6.1920937838
 H        -3.3900708645       -2.0746604024       -6.0392235104
 H         0.8935508886       -4.1391295988       -5.9285348173
 H         1.0658087456       -3.0899496644       -7.4283152792
 H         2.8194841227       -4.7213066519       -7.6423248116
 H         1.5727932898       -5.3622832237       -8.6859701323
 H         1.0072777609       -9.4117531875       -7.8770201603
 H         2.3601413834      -10.5195874085       -8.3340696676
 H         0.6160784226      -10.9585690125       -9.9674686320
 H         1.3873298821       -9.5664566643      -10.9353052637
 H        -3.1796913180      -10.4920479242       -9.8087599638
 H        -4.2963554874      -10.0450314372      -11.2725028391
 H        -5.8308117914       -9.8157834474       -9.5022143608
 H        -5.2744655398       -8.1234783353       -9.8694327474
 H        -6.6967645444       -7.8086782287       -6.9382354508
 H        -6.8183033007       -8.4841666949       -5.2138203233
 H        -8.8888841787       -7.4452554153       -5.8735019267
 H        -9.0737374344       -9.1811729174       -5.7199213987
 H       -11.9210504251       -8.4242427277      -10.4890582675
 H       -11.3837900857       -7.0093309982       -9.3957129329
 H       -13.8075970266       -7.6149938617       -8.1375714520
 H       -14.1013825503       -8.2101062913       -9.8771686726
 H       -17.1980883995       -6.8547166600      -13.0084850043
 H       -17.0812334871       -5.2121726160      -12.3475727278
 H       -17.6576533451       -6.6451554906      -11.3757372066
 H       -15.7202020836       -5.9360412801       -8.1847992286
 H       -16.4286916352       -7.3464983641       -9.1016514923
 H       -17.2218113474       -5.8557744173       -9.1872515000
 H       -16.3955345374       -4.0299241350      -10.2498225521
 H       -15.0079856975       -3.7403582778      -11.2835565303
 H       -14.7147875509       -3.8405556148       -9.5415996846
 H       -10.3710973801      -10.2451919100      -10.5258196677
 H        -8.7413202655       -9.8237942454       -9.9890283938
 H        -9.8387846535       -8.4640273510      -10.1923758284
 H       -10.6281495143      -10.5834557693       -6.6627571238
 H        -9.1437322306      -11.0907159181       -7.4148272093
 H       -10.6600589598      -11.5167764284       -8.1175896466
 H        -4.4889216649      -12.0572984240       -6.3264253039
 H        -3.4738721944      -11.3768665035       -7.4659543346
 H        -5.1915081142      -11.8013061222       -7.9008888829
 H        -3.3030244734       -9.3118837493       -5.4412362746
 H        -4.5609782625      -10.2724458204       -4.6660171720
 H        -4.8463451154       -8.6513426725       -5.0669219525
 H         0.2131021796       -8.5616078678      -12.5038081491
 H        -0.4571881092       -7.1448126671      -11.5958945003
 H        -1.3477241225       -7.9965826554      -12.9456844267
 H        -0.7303997846      -10.7067443518      -12.6708720378
 H        -2.4107906982      -10.4778650102      -12.5213044368
 H        -1.3845843116      -11.2145893348      -11.2029129621
 H         4.4878676203       -6.7135054465       -8.8207588987
 H         5.1850498338       -7.1924093183       -7.2425500709
 H         4.3286360622       -5.6783877637       -7.3880897899
 H         2.2000307278       -8.9302897819       -6.1238069457
 H         3.4176998760       -7.8056893315       -5.2906909292
 H         3.9577884115       -9.0917602041       -6.3643460297
 H        -0.8473804053       -3.8133058307       -4.3987175573
 H        -2.4718716650       -3.2359207515       -4.6358946737
 H        -1.2515912779       -2.3929936867       -5.5485307368
 H        -2.1955903555       -5.8447388939       -4.7291240710
 H        -1.2237223160       -6.5850646918       -5.9717620363
 H        -2.7906103288       -6.2676098405       -6.3537408550
 H        -4.1412903203        0.0600736953      -11.6469773527
 H        -5.3285483621       -0.2965812773      -10.4947221670
 H        -4.4654776558       -1.6597247660      -11.0767880145
 H        -1.1573050978       -0.3680580352       -9.6787601207
 H        -1.7188983324        0.9582469304      -10.6820797407
 H        -1.7489248499       -0.6703969961      -11.3276782486
 H        -4.0263465774        5.3026917860       -6.2599771282
 H        -2.4906636377        6.3891015815       -6.3318171573
 H        -2.3843649901        4.6737580607       -6.0119743245
 H        -5.0833789738        5.5910151664       -8.0951910528
 H        -4.4787802349        4.9499484569       -9.6431405765
 H        -4.2788349044        6.7759389511       -8.9720496703
 H         4.3470929803        4.8290285457       -8.4975680889
 H         5.0582815577        6.2476086116       -7.8534527291
 H         5.3921687058        5.9288281911       -9.4973526461
 H         3.8595115263        8.5789731419       -8.7815580030
 H         3.0588502911        7.7435848095       -7.4182141200
 H         2.2300000661        8.4068848782       -8.8221422421
 H         5.3436953219        6.1642924101      -15.9894661832
 H         4.4452882211        4.6837950467      -16.4954653771
 H         5.0672857219        4.9081591362      -14.8414456352
 H         2.6892184800        6.9865262784      -17.1524391702
 H         3.7949563241        7.9715642828      -16.3699678591
 H         2.1727589970        8.0313931825      -15.9084258268
 H        -2.5799150572        2.5247042194      -12.7734583444
 H        -1.7209941122        1.3668866575      -13.6573623987
 H        -3.2808452037        1.8468336784      -14.3466178181
 H        -1.6983312652        1.7801515470      -16.1915838670
 H        -0.5350128258        3.0381988727      -16.5692056483
 H        -2.2323906393        3.2770115773      -16.7986866800
 H        -5.8842109251        7.7091971941      -15.5291530475
 H        -4.7571547733        9.0884991639      -15.2240520064
 H        -6.2998031783        8.9276323384      -14.3597908590
 H        -3.6069566433        8.0384093046      -11.7459192160
 H        -5.0733460380        9.0004389920      -12.1466954946
 H        -3.5253828470        9.2883928647      -13.0457041777
 Na       -2.6019363943        4.8495847061      -11.7929911587
 Na       -2.4936909531       -6.5718652620       -8.9048376915
