232

 C       -21.5873747646       -6.9705205135       -1.9467626377
 C       -20.5715670963       -6.2678543478       -2.8848859571
 O       -19.5382871954       -5.7526199486       -2.5076643558
 C       -21.1195573114       -6.0776849329       -4.3872706718
 C       -19.9245250315       -5.2750648461       -5.1396950866
 O       -19.7734439965       -4.0710593568       -4.8248476761
 C       -18.8902201611       -5.9771617406       -6.0031506678
 C       -17.7390849274       -4.8937601476       -6.3584685437
 C       -17.2325810670       -4.1776470980       -5.0525106072
 O       -17.0409970121       -4.7748223485       -4.0010562016
 C       -16.8298137360       -2.6172104765       -5.1952327792
 C       -16.6547073540       -2.0209862572       -3.7791157006
 O       -17.5531468114       -1.4246822354       -3.2337053434
 C       -15.3032609168       -2.3074614738       -3.0379760312
 C       -15.3549908644       -1.9705830717       -1.5880544045
 C       -16.0234236454       -3.0150563740       -0.6500547464
 O       -17.1840828108       -3.3343677276       -0.8275297542
 C       -15.3185944829       -3.6198535765        0.6128389907
 C       -14.0716595495       -4.5266618785        0.1397655372
 O       -12.9550840177       -4.2389881629        0.4250934862
 C       -14.4270669692       -5.6981994175       -0.7577120173
 C       -13.2669159104       -6.6236094120       -1.2376833772
 C       -12.8653284702       -6.3350540940       -2.7025009609
 O       -13.3436740048       -5.4592435542       -3.3801119139
 C       -11.7787562448       -7.3305802398       -3.4143981400
 C       -10.5064510902       -6.4883025522       -3.7995083334
 O       -10.3482685198       -5.3616980822       -3.3384704752
 C        -9.4384486350       -7.1818630144       -4.7690080887
 C        -8.0095208545       -7.1251189880       -4.2127462909
 C        -7.2063649846       -5.8492537021       -4.5392995259
 O        -6.9421801601       -5.5417550579       -5.7028344619
 C        -6.5894022802       -5.0831670518       -3.3849540431
 C        -5.0134464752       -5.3938442884       -3.3435150734
 O        -4.4430293490       -5.1580391335       -2.2867977182
 C        -4.3333255641       -5.9080729720       -4.6371858169
 C        -2.8082528202       -6.0698402474       -4.6322813828
 C        -2.0795050136       -4.7082205829       -4.8475253551
 O        -2.7433480714       -3.7024038441       -5.0800692956
 C        -0.5452092943       -4.6222890024       -4.9959692500
 C        -0.3311951911       -5.0216004362       -6.5238481273
 O        -0.6603927765       -6.0704884731       -7.0324802566
 C        -0.0087850790       -3.8578103665       -7.4825306058
 C        -0.0501776265       -4.1512557418       -8.9607418696
 C         1.4458615715       -4.2181902303       -9.5882572416
 O         2.4170636193       -3.7022280914       -9.0950888216
 C         1.4203667702       -4.7183685310      -11.1804118598
 C         1.7462381596       -3.3874500023      -12.0337051105
 O         0.8605553606       -2.6255345277      -12.4563156138
 C         3.1974962465       -2.9946772912      -12.2661778065
 C         3.2048821418       -1.7898402232      -13.2372415293
 C         4.6485793764       -1.2194910990      -13.1957629954
 O         5.2338825065       -1.0858063449      -12.1609038086
 C         5.3297531064       -0.9842000649      -14.6158647469
 C         4.9858788713        0.3586522516      -15.2362146164
 O         5.0996004045        0.3952991292      -16.4906540407
 C         4.3654913089        1.6196184376      -14.4943066569
 C         5.3566619961        2.5013003239      -13.7342290095
 C         6.6711550015        2.7099983947      -14.5076732007
 O         7.0447563088        1.9409252699      -15.3766014843
 C         7.6927124261        3.9895587301      -14.1811912876
 C         6.8145275101        5.2464742011      -14.4452309757
 O         5.7144993580        5.5122421884      -13.9020314851
 C         7.4389203518        6.2941184913      -15.4290972971
 C         6.3768740416        6.8838378173      -16.2980353690
 C         5.6530462803        5.7425530266      -17.0689224609
 O         5.5601512908        4.6017718396      -16.6567600782
 C         4.8146398039        6.0881572654      -18.3707815713
 C         6.0331627769        6.5760598918      -19.3335420922
 O         6.7673690467        7.4556238468      -18.9233554384
 C         6.3093665138        5.9394484015      -20.5952770689
 C         7.7734526283        6.0049225168      -20.9030668241
 C         8.0210053969        5.3276678670      -22.3383205854
 O         7.1806415477        5.0828297922      -23.1730924790
 C         9.6090844578        4.7916599418      -22.6011339822
 C         9.4814584466        3.3350196311      -22.2494618472
 O         9.4622212124        2.3905227465      -23.0632065870
 C         9.6403385626        2.8721050085      -20.7063592832
 C         9.3217303891        1.3405752744      -20.6721520696
 C         8.1127993637        1.1665794268      -19.6907328838
 O         7.8368067067        2.0915886581      -18.8987472198
 C         7.4804138794       -0.1993024206      -19.6466971371
 C         5.8928044380        0.0663982854      -19.9124011248
 O         5.1932647608        1.0071763780      -19.6590921327
 C         5.2074411760       -1.1099560945      -20.6043281502
 C         8.1287760073       -1.2086176843      -20.6042689939
 C         7.5212285885       -0.6731962216      -18.1687444838
 C         9.8341285557        5.0474154076      -24.0441015259
 C        10.6785567370        5.6236496381      -21.7357420045
 C         4.0319826382        4.8872031457      -18.8433544215
 C         3.9629598402        7.2476662478      -17.9808197738
 C         7.7740088709        3.7673604811      -12.5946234055
 C         9.0074205923        3.9047210979      -14.8834699571
 C         6.9303264701       -1.0845628645      -14.5045759554
 C         4.8810678753       -2.0327400974      -15.7054890602
 C         2.5959020537       -5.7634548128      -11.2379418996
 C         0.0831011725       -5.2615973975      -11.6314077553
 C        -0.1448695676       -3.1732501594       -4.6768438303
 C         0.2539596102       -5.7308773190       -4.1715731005
 C        -6.6193292575       -3.5810151862       -3.6563786702
 C        -7.2917876898       -5.2191189664       -1.9960728931
 C       -11.1868744632       -8.4861192694       -2.5805469420
 C       -12.4590116871       -7.7995794960       -4.7053566122
 C       -14.7929892147       -2.5525790961        1.7185478800
 C       -16.3514655491       -4.5734112975        1.2856499055
 C       -15.5406017043       -2.5705976084       -6.0303083637
 C       -17.9691325509       -1.7616289900       -5.9071930212
 C       -21.5567613356       -7.3370401786       -5.0656979230
 C       -22.4133361432       -5.0871055700       -4.2965903207
 H       -22.4664067508       -7.1181054051       -2.5714103561
 H       -21.8872712129       -6.2360259404       -1.1068604591
 H       -21.1809845341       -7.9740708174       -1.7314695337
 H       -19.3181892912       -6.3431056141       -6.9378270755
 H       -18.5447004487       -6.7423187673       -5.3494715130
 H       -18.1775527459       -4.1991568920       -7.0164989136
 H       -16.9448979540       -5.3900397847       -6.8752359970
 H       -14.4625053740       -1.9214096966       -3.5397718990
 H       -15.2482180599       -3.4117404997       -3.2997573335
 H       -15.8761546876       -1.1148043209       -1.3475624360
 H       -14.2837244467       -1.8933119993       -1.2102676999
 H       -14.9154371044       -5.2187139868       -1.6029947073
 H       -15.1998136311       -6.3047064100       -0.3135048774
 H       -13.6421622241       -7.6396251985       -1.1889675367
 H       -12.3451710917       -6.4187098321       -0.6507268357
 H        -9.3238191450       -6.6365339539       -5.7001559463
 H        -9.6358906519       -8.1712165970       -4.9727734575
 H        -7.6724823734       -8.0828639396       -4.6258662989
 H        -8.0584738530       -7.2675306199       -3.1203867363
 H        -4.6484969692       -5.2394362121       -5.4016024989
 H        -4.7324967652       -6.8377930843       -4.9437884453
 H        -2.5180820423       -6.7898568499       -5.4157073410
 H        -2.5751846998       -6.3971002341       -3.5560118981
 H         1.0551078874       -3.5555846952       -7.2424284776
 H        -0.7083976916       -3.1407082450       -7.2505236686
 H        -0.5460418224       -3.4291117605       -9.6053610988
 H        -0.4980364391       -5.0650189664       -9.1245045368
 H         3.5528121276       -3.9653619428      -12.6881063905
 H         3.5272006090       -2.6926872756      -11.2706422241
 H         2.5263082229       -0.9809842826      -12.9507170250
 H         2.9350180469       -2.0284325008      -14.2177978652
 H         3.6242351235        1.3659334338      -13.6753415804
 H         4.0800900401        2.2149232261      -15.3933676168
 H         5.8143029348        1.9051012266      -12.9134345909
 H         4.9300180603        3.4264463571      -13.3204840538
 H         8.2263634039        5.9407178026      -16.1887056223
 H         8.0332093990        7.1138525134      -14.8117301643
 H         6.7716459044        7.6066571270      -16.9857340407
 H         5.6870682642        7.3882570119      -15.6127324640
 H         5.8376476878        6.5794690118      -21.3605442142
 H         5.8611224801        4.9691479239      -20.8169364795
 H         8.2611305440        5.4750086061      -20.0460001341
 H         8.3080729885        6.9482537086      -20.9966655569
 H         9.0601126556        3.4251898400      -19.9563587631
 H        10.6874474352        3.0598515269      -20.5649756297
 H        10.0592118224        0.6980466952      -20.1144114085
 H         9.2532826028        0.9716905666      -21.6801822269
 H         5.1161003532       -2.0162416884      -19.9065496669
 H         5.7557072665       -1.4025903520      -21.4630397072
 H         4.2947286344       -0.7897958021      -21.1198914373
 H         7.8900154372       -2.2870281462      -20.3619656152
 H         9.1467425931       -1.1692618779      -20.4812193926
 H         7.9605747271       -1.1361500499      -21.7370913317
 H         6.9870069813       -1.6560731275      -18.0634552109
 H         6.8403781874       -0.0644727615      -17.5599160366
 H         8.5303538198       -0.6856821854      -17.6469343029
 H         9.3188357428        4.3533835378      -24.6244103663
 H        10.8580054688        4.8380936313      -24.1466433987
 H         9.6804789206        6.1229946567      -24.3577847104
 H        11.7317550372        5.2194294929      -21.8441781085
 H        10.3416296574        5.5207368589      -20.6848765563
 H        10.6761383461        6.6644958207      -22.1332786149
 H         3.5482218342        4.4352454001      -18.0454289056
 H         4.5711601417        4.1186002479      -19.3970076454
 H         3.2222626386        5.1432687006      -19.5168884805
 H         4.6014229138        8.0403799382      -17.5575586451
 H         3.3111469939        6.9039995759      -17.2508562907
 H         3.4742236667        7.6477440119      -18.8743083862
 H         8.4795818041        4.4731344643      -12.1960939942
 H         8.2166685036        2.7498611898      -12.6106780516
 H         6.8494503849        3.8897954508      -12.0880486447
 H         9.3163725818        2.8329592327      -14.9364800768
 H         9.7958707451        4.5680157321      -14.3801054817
 H         8.7523920705        4.0292660584      -15.9323930180
 H         7.3364299995       -2.1155255682      -14.8150569056
 H         7.0963449111       -0.8989802101      -13.3914412559
 H         7.4531224668       -0.2237070611      -14.9665111609
 H         5.1904310616       -3.0617759856      -15.6674775671
 H         5.4200645812       -1.7302871450      -16.6686739856
 H         3.8009077063       -1.9303627657      -15.9006688704
 H         2.3600347135       -6.7517794248      -10.8390464832
 H         3.5018702675       -5.3954078682      -10.7474056178
 H         2.8301806617       -6.0148052382      -12.2601919459
 H        -0.4898454181       -4.3523267681      -11.6833767078
 H        -0.3547955698       -5.8527376565      -10.8021995953
 H        -0.0212361908       -5.8792931197      -12.4863979364
 H         0.0064181557       -2.9579137835       -3.5905966361
 H        -1.0660075691       -2.6057454495       -4.9337896242
 H         0.7290545982       -2.8948755304       -5.2926778832
 H         0.1474503454       -6.6142289858       -4.7608953809
 H        -0.0111774211       -5.8288196684       -3.0622693751
 H         1.3153706362       -5.3942861479       -4.0732787726
 H        -6.1387131592       -3.4440314677       -4.6506581967
 H        -6.0437127201       -3.0073840300       -2.9075186878
 H        -7.7139040668       -3.1814345531       -3.6497996219
 H        -8.3542753206       -5.2924087928       -2.0710807579
 H        -7.1424589696       -4.3625947275       -1.3281593788
 H        -6.8894734836       -6.1652970116       -1.5202559887
 H       -11.9963848387       -9.2325139937       -2.2476096048
 H       -10.5481936457       -8.2053854209       -1.7882913230
 H       -10.4442102850       -8.9980777217       -3.1803651449
 H       -13.1999445824       -8.5053740139       -4.4469526283
 H       -11.6370097622       -8.2471256107       -5.3391529663
 H       -12.8777289530       -6.9534689182       -5.2770416893
 H       -13.9888129275       -2.9937069328        2.2604760808
 H       -15.5386237604       -2.2401518271        2.4798332950
 H       -14.4782689667       -1.6604650396        1.1743115745
 H       -16.2909460525       -4.4917601940        2.4201945384
 H       -16.3963897068       -5.5931983922        0.8249221906
 H       -17.3596968317       -4.1489942394        0.9695596489
 H       -15.7498891135       -2.4977353007       -7.0658226190
 H       -14.9080753670       -3.4931897895       -5.8993075619
 H       -14.9470997739       -1.6113148311       -5.8497797879
 H       -18.7527514042       -2.3100990810       -5.6364298896
 H       -17.7811575820       -1.6550098013       -7.0098273419
 H       -18.1679935812       -0.8682556640       -5.3376678499
 H       -20.6720172579       -7.8510810780       -5.4258286901
 H       -22.0742468862       -7.1486486467       -6.0146000905
 H       -22.1783691204       -8.0479961247       -4.4428837499
 H       -23.3096508776       -5.7063806243       -4.1287647509
 H       -22.4788518961       -4.5554904307       -5.1955396914
 H       -22.2221360554       -4.3369044761       -3.4997152844
 Na      -18.7333705205       -3.4913228541       -2.5877079419
 Na        5.8339253520        2.4470253518      -17.7274035813
