232

 C        -6.7819227581        6.9082698883      -12.4696849445
 C        -5.2688951353        6.7200950546      -12.7608194398
 O        -4.6309052547        5.8143662559      -12.2638586843
 C        -4.5707081491        7.8160127360      -13.7144551988
 C        -3.1433696398        7.3177848605      -14.2464925970
 O        -2.2447308442        7.3371020127      -13.4188521156
 C        -2.9624345548        6.9688359771      -15.7738428283
 C        -2.1543050759        5.7197809412      -16.1751466000
 C        -2.5409244827        4.5616823774      -15.1940499660
 O        -3.3643504724        4.7839347223      -14.3450126633
 C        -1.6593846120        3.1790004291      -15.0839239852
 C        -0.3936296500        3.5973553141      -14.2717566690
 O        -0.5457309924        4.2971523865      -13.3073300192
 C         0.9885427230        3.0052091284      -14.6350080542
 C         2.0452565553        3.9973075488      -14.1045717716
 C         2.1378816076        5.1750221732      -15.1234687031
 O         1.0914280579        5.6098722086      -15.5703773049
 C         3.4694019976        5.9146472347      -15.2897155794
 C         3.8525510114        6.6192478882      -13.8984575437
 O         5.0006007303        6.8244092904      -13.5942689089
 C         2.6986087834        7.2974510181      -13.1062988412
 C         3.0166278176        7.6126485291      -11.5879059743
 C         3.2738436016        6.3237513407      -10.7784168496
 O         3.4816509302        5.2255060413      -11.2443593964
 C         3.3304769849        6.3831708153       -9.2456914386
 C         2.1538786767        5.6416718786       -8.6942721990
 O         2.2423933862        4.6666172474       -7.9357046341
 C         0.8690057381        6.0120812664       -9.3735439108
 C        -0.2317041617        6.1835546913       -8.2944447716
 C        -1.6687337828        6.2694375993       -8.9813683781
 O        -1.8453903937        6.7762414220      -10.1280945544
 C        -2.7920769790        5.6010636239       -8.2578689049
 C        -2.6942356118        4.0115405383       -8.6259784456
 O        -2.6135407174        3.7431202817       -9.8289239021
 C        -2.5863535534        2.9451360699       -7.5112469562
 C        -2.2952339833        1.4823260157       -7.9848296952
 C        -3.5070537791        0.8775888313       -8.7884668386
 O        -4.5941177011        1.3357574897       -8.5749088496
 C        -3.3069078246       -0.3152005079       -9.7862339292
 C        -3.0661022797       -1.4854138117       -8.7702076341
 O        -1.9304483757       -1.8787437541       -8.5455477348
 C        -4.3201438248       -1.9890170852       -8.0351244049
 C        -3.9100095160       -2.8838390675       -6.7756292164
 C        -3.2139343771       -4.1961444259       -7.1230693704
 O        -3.6836791916       -4.8807283817       -8.0129174641
 C        -1.8500209123       -4.5912708377       -6.3319608606
 C        -0.6974691397       -4.8710798708       -7.3320889762
 O        -0.9112335935       -5.6062999455       -8.2798816465
 C         0.6729007694       -4.1985120173       -7.2359712782
 C         1.8266402312       -5.1018632339       -7.7495083252
 C         1.9382921165       -6.3739556046       -6.9230811317
 O         1.3020151506       -6.5975752870       -5.9134391971
 C         2.9815327273       -7.4946009556       -7.3427473685
 C         2.5599693183       -7.9487413020       -8.8403149850
 O         3.0251769510       -7.4320529826       -9.8899367261
 C         1.6955922410       -9.1903722236       -8.9477171708
 C         0.8421022105       -9.4052038027      -10.2004445610
 C        -0.5584538166       -8.7840410231      -10.0099859212
 O        -0.9955300956       -8.3169870230       -8.9498054136
 C        -1.4697811935       -8.8806731174      -11.2742384023
 C        -2.9950526978       -8.8087259722      -10.6766124803
 O        -3.5087052656       -7.6543417803      -10.7236044533
 C        -3.8575525050       -9.9571159850      -10.1232792120
 C        -4.9811741018       -9.4196872445       -9.1901785723
 C        -4.5616476340       -9.1115192020       -7.7582482667
 O        -3.9283118408       -8.1302700892       -7.4090236697
 C        -4.8817439452      -10.1376693142       -6.6436613019
 C        -6.4751091266       -9.9978591508       -6.5300170840
 O        -7.0487991249      -10.7395521783       -7.3136326233
 C        -7.1259745228       -8.9493519745       -5.7667978023
 C        -8.7089933900       -9.0151483432       -6.0570790130
 C        -8.9831809650       -8.7898417144       -7.5932297878
 O        -8.3239467250       -7.9793153338       -8.1848570084
 C       -10.0801642574       -9.6159497148       -8.3554201763
 C       -11.5184987350       -8.7255808868       -8.3682921178
 O       -12.1649157325       -8.9194777850       -7.3515089695
 C       -12.0589335633       -7.9219491268       -9.5649377874
 C       -13.5730995039       -7.6597052990       -9.4959822866
 C       -13.9619108162       -6.1375895912       -9.7613253974
 O       -13.0600276545       -5.3293212671       -9.7079697577
 C       -15.4158085799       -5.7461142000      -10.0970510436
 C       -15.8636160882       -6.5682728518      -11.2974701531
 O       -15.0576794576       -7.2533477366      -11.8842405365
 C       -17.3465294949       -6.3657050264      -11.8276595308
 C       -16.4433786733       -5.9740902051       -8.9325694529
 C       -15.3599153652       -4.1601302517      -10.1943417498
 C        -9.5448906572       -9.7559811693       -9.8306323763
 C       -10.4312217444      -10.9673256657       -7.5762218912
 C        -4.4615284682      -11.5674606971       -7.0010460352
 C        -4.1706987309       -9.6829949367       -5.3044484031
 C        -1.1728044734       -7.7491489040      -12.3028070872
 C        -1.3851695122      -10.2375473288      -11.9620968388
 C         4.4277653548       -6.8866974326       -7.4190577752
 C         2.9213193981       -8.6060356629       -6.2654259345
 C        -1.5490759918       -3.5422699693       -5.1717095554
 C        -2.3516839532       -5.9532210288       -5.5843250787
 C        -4.5940472244       -0.1863495097      -10.7192993878
 C        -1.9948404034       -0.2831188940      -10.6051506118
 C        -2.7134043911        5.9917247753       -6.7229957186
 C        -4.2266546462        5.9932167880       -8.8684066900
 C         4.7184175209        5.8640049765       -8.6762581453
 C         3.1777619338        7.8608564171       -8.6249962242
 C         4.6672940827        5.0198579800      -15.6604625005
 C         3.3258922847        7.2124253559      -16.1713183023
 C        -2.5075250721        2.1805658766      -14.2071322078
 C        -1.3338911693        2.4133801428      -16.4716212810
 C        -5.6267261500        8.2506666449      -14.8155585219
 C        -4.2537027496        9.1351618866      -12.9413968014
 H        -7.4308419959        6.1411810251      -12.8251275390
 H        -7.0257596118        7.8740860846      -12.7882125435
 H        -6.8433902406        6.8464770057      -11.4122432402
 H        -2.6346340661        7.9090825040      -16.2293423391
 H        -4.0096806554        6.8557231674      -16.1577582600
 H        -1.0729499707        5.8534440659      -16.0230632314
 H        -2.4552566987        5.4486951290      -17.1765741821
 H         1.0679501195        2.8425878630      -15.7270509590
 H         1.1001410329        2.0187419882      -14.2677120354
 H         2.9646418860        3.4602758946      -13.9995787845
 H         1.7673774961        4.3468957999      -13.0719157823
 H         1.8265599619        6.6227714383      -13.1821525719
 H         2.4687495291        8.2539178078      -13.5132664433
 H         2.1994687185        8.2134236223      -11.1960500798
 H         3.8991111328        8.2843022971      -11.4279622351
 H         0.6119952229        5.1394148802      -10.0346485860
 H         1.0059143647        6.8688559835       -9.9747507095
 H         0.0578469860        7.0211900467       -7.6422293663
 H        -0.2599550634        5.2836595891       -7.7520813123
 H        -3.4687545744        2.9313804044       -6.9604504795
 H        -1.8175954709        3.2533563804       -6.7479422397
 H        -2.0194201710        0.9404506306       -7.1136644823
 H        -1.4382823197        1.4613179188       -8.7281640042
 H        -4.9065544713       -2.6497745955       -8.7198748031
 H        -4.9889192205       -1.2314485115       -7.6212721922
 H        -4.8436444662       -3.1804632636       -6.3672914783
 H        -3.3070163289       -2.2830914058       -6.0629956294
 H         0.8633603482       -3.8220357371       -6.2586319003
 H         0.5419217132       -3.2768950927       -7.8650412126
 H         2.8265917829       -4.6278004258       -7.7112211184
 H         1.7155094475       -5.3983517243       -8.8002112781
 H         1.1232853599       -9.4160143199       -8.0011146984
 H         2.5336872001      -10.0515199334       -8.8391977277
 H         0.5670435932      -10.4997984729      -10.2573498276
 H         1.2852198460       -9.0570467971      -11.0855204239
 H        -3.1331077122      -10.6518472630       -9.6185168896
 H        -4.1497965675      -10.5814359049      -11.0715154179
 H        -5.8244688578      -10.1527299558       -9.2034610092
 H        -5.4789883918       -8.4572783412       -9.6560422729
 H        -6.7860004611       -7.9707621142       -6.0851947229
 H        -7.0267418919       -8.9393744700       -4.6612362544
 H        -9.2265218346       -8.2835301793       -5.4815003971
 H        -9.1168420277       -9.8742302800       -5.5923681441
 H       -11.8067640088       -8.4492811960      -10.5329190529
 H       -11.5059800012       -6.9803801982       -9.7007647465
 H       -13.7709699007       -7.9838340791       -8.4446914343
 H       -14.0795311110       -8.1865174022      -10.3160410289
 H       -17.5538132210       -6.9834625794      -12.7031869206
 H       -17.3943767009       -5.3091198660      -12.1577252997
 H       -18.1428403147       -6.4847483894      -11.0924909672
 H       -16.1574626563       -5.1733777088       -8.1837009299
 H       -16.2700913642       -6.9505694992       -8.4972054655
 H       -17.4818137492       -5.7784660173       -9.0715677843
 H       -16.3342545161       -3.8664488120      -10.2693642669
 H       -14.7812397025       -3.7976324132      -11.0903949410
 H       -14.7847141334       -3.8479305314       -9.2817488372
 H       -10.2043691532      -10.3862396099      -10.4586268386
 H        -8.6034013702      -10.1567338476       -9.8166898630
 H        -9.4861435870       -8.8089358286      -10.3640149911
 H       -11.1620423370      -10.7611195243       -6.8106630380
 H        -9.4883258232      -11.3376313384       -7.1365949651
 H       -10.7611108872      -11.6973752375       -8.1979218379
 H        -5.0972452078      -12.3221140811       -6.5515983696
 H        -3.4294116268      -11.7387953248       -6.6267700328
 H        -4.4007155806      -11.6101237811       -8.0533285707
 H        -3.0969046720      -10.0142544559       -5.2190392323
 H        -4.7100574612      -10.0632881092       -4.3909274255
 H        -4.2179668609       -8.6084881511       -5.2796080131
 H        -0.2428320429       -8.0670469475      -12.7049218739
 H        -1.1773448286       -6.8070033232      -11.7179940702
 H        -1.9592457592       -7.7544903613      -13.0801915878
 H        -0.4154443210      -10.5758225386      -12.1862688023
 H        -1.9691108230      -10.3012015131      -12.9209162615
 H        -1.6691721766      -11.0893675845      -11.3083709510
 H         4.3993917530       -5.8630012922       -7.7558153753
 H         4.9965963382       -7.3954332792       -8.2023354556
 H         4.7730751912       -6.9872374596       -6.4218210119
 H         1.8996068598       -8.5310975888       -5.8955901602
 H         3.5994291134       -8.3274756395       -5.5175563359
 H         3.1811361789       -9.4956892562       -6.7321784928
 H        -0.9178354356       -4.0520022229       -4.4327604963
 H        -2.4878205111       -3.1416640488       -4.7821740055
 H        -0.9699992174       -2.6943018316       -5.5440541979
 H        -1.6610398597       -6.7598504614       -5.4057088117
 H        -3.1374439809       -6.3347423897       -6.2064801382
 H        -3.0251151236       -5.8431839495       -4.7242145664
 H        -4.6868998999        0.8403148803      -10.9784284450
 H        -5.6005463867       -0.4384609147      -10.3228469622
 H        -4.4491370157       -0.7834621604      -11.5520003713
 H        -1.2320558699       -0.2353538578       -9.9104965548
 H        -1.9157557178        0.5651876574      -11.2949040392
 H        -2.0343859484       -1.2444553354      -11.1103492566
 H        -1.6061012651        6.1328165495       -6.6393221223
 H        -3.0670345215        5.2526798474       -6.0151482663
 H        -3.2563838530        6.9064696367       -6.5623196237
 H        -4.8248230087        5.0524742841       -8.8304989366
 H        -4.1147763664        6.1611916743       -9.9452546996
 H        -4.7243394775        6.8093460404       -8.3321535230
 H         4.7636304374        6.0002691205       -7.6377072877
 H         5.5877802623        6.3469093220       -9.1949184688
 H         4.7726311244        4.8013287986       -8.8533362586
 H         4.1939805261        8.3839837162       -8.6323905765
 H         3.0622069826        7.8015035886       -7.5745339657
 H         2.3784049504        8.5595144361       -9.0549296773
 H         5.5636662887        5.6652981089      -15.7262325762
 H         4.5598217167        4.6986312606      -16.6577979776
 H         4.8746130082        4.1993165314      -14.9569776815
 H         3.1919234525        6.9781284002      -17.2213223113
 H         4.0511137171        7.9904182331      -16.0480736811
 H         2.3722026671        7.5811774438      -15.8573118242
 H        -2.6600118506        2.6312653770      -13.2120172897
 H        -2.0924656420        1.1520605266      -14.2406306863
 H        -3.5922913027        2.1084604850      -14.6520543059
 H        -0.4318352605        1.8226503145      -16.3002537965
 H        -1.2570906395        3.0554345692      -17.4032353896
 H        -2.0400549005        1.6617591412      -16.6228022507
 H        -5.8734275955        7.4265683894      -15.5396134657
 H        -5.3315979204        9.1070778752      -15.3899385886
 H        -6.5200502585        8.4675459650      -14.2682109335
 H        -3.5961806895        8.8445256443      -12.2044079178
 H        -5.1963540345        9.3769586964      -12.4209858274
 H        -3.8170574192        9.8185060403      -13.6012550917
 Na       -2.4940217770        5.3211215225      -11.8347434951
 Na       -2.6569625715       -6.8390066973       -8.7673414112
