232

 C        -6.8484680866        7.0776772569      -12.3661849696
 C        -5.2486867436        6.9385194621      -12.6268000988
 O        -4.4793341249        6.3692438585      -11.8946392732
 C        -4.6019281216        7.8535218983      -13.7559686461
 C        -3.2092179314        7.3350711688      -14.3583299204
 O        -2.2536947251        7.2960692821      -13.6252710339
 C        -2.9518164730        6.8514279064      -15.8651820579
 C        -2.0172311806        5.7320132034      -15.9316541645
 C        -2.5187041468        4.5369444856      -15.0334039764
 O        -3.4653288560        4.4727993410      -14.2701491238
 C        -1.6023310007        3.2252064842      -15.1507604443
 C        -0.4165579845        3.5341503616      -14.2997806499
 O        -0.6109280394        4.1235067784      -13.2130722900
 C         0.9408651159        2.9932848239      -14.5686631081
 C         2.0202328466        3.9368216336      -14.0421830335
 C         2.1486088408        5.0853231650      -15.0871041100
 O         1.2295392837        5.2369807345      -15.8711108708
 C         3.5131028300        5.9413397402      -15.2477446748
 C         3.9263524704        6.5868772460      -13.7546939830
 O         5.0217332985        6.7058123069      -13.3383888897
 C         2.7376112628        7.1376906184      -12.9973658935
 C         3.1026060823        7.6529788729      -11.5957131238
 C         3.3601425829        6.3570752624      -10.7894827339
 O         3.4063671481        5.2733034991      -11.3456745084
 C         3.4579925671        6.4428870082       -9.2710155279
 C         2.1908537114        5.7433557667       -8.7506401063
 O         2.1839341738        4.9711044103       -7.8438885895
 C         0.7751126686        5.9895808118       -9.3841476252
 C        -0.2417240476        6.2863529802       -8.3217170406
 C        -1.5775435954        6.3929734831       -9.0371885699
 O        -1.6443662591        6.8736433287      -10.1186431453
 C        -2.8716950186        5.6985286077       -8.3584296324
 C        -2.7066574883        4.2896094939       -8.8833616507
 O        -2.4703524776        4.0434633149      -10.0527769524
 C        -2.5094624768        3.2459619319       -7.7631771525
 C        -2.2098957313        1.9002534263       -8.4340934670
 C        -3.4215947001        1.1111837165       -8.7316458898
 O        -4.5277525146        1.4210128690       -8.3138978797
 C        -3.2755784734       -0.2186531972       -9.6768103401
 C        -3.0202051772       -1.3862393114       -8.6687236247
 O        -1.8967710389       -1.7384041971       -8.3661959831
 C        -4.3252825134       -2.0989629387       -8.0583651190
 C        -3.9745565203       -2.8567726141       -6.7318341058
 C        -3.1838088062       -4.1240096526       -7.0846525095
 O        -3.5846042933       -4.6815928567       -8.0852607716
 C        -1.8354194116       -4.5722339654       -6.2833507743
 C        -0.7578482132       -4.8743583867       -7.3304013302
 O        -0.9376619775       -5.6931178560       -8.2313221321
 C         0.6050982168       -4.1632828309       -7.1439905701
 C         1.6811268700       -5.0458638579       -7.7381393289
 C         1.9363658367       -6.3703442577       -6.8466322546
 O         1.1912008545       -6.5372239186       -5.9195797772
 C         3.0038726097       -7.4456382270       -7.2891867539
 C         2.4909759968       -7.8430069355       -8.7420687077
 O         2.8046010484       -7.2083016239       -9.6697305351
 C         1.5732098892       -9.0893303491       -8.9221735905
 C         0.8790627470       -9.2107166428      -10.2825414623
 C        -0.6463554004       -8.8744383063      -10.0938183302
 O        -0.9518616113       -8.3288064256       -9.0746913709
 C        -1.6412373834       -8.9128041595      -11.2920243406
 C        -3.0851067714       -8.6744498879      -10.8053661583
 O        -3.7667292285       -7.7197191467      -10.9049704587
 C        -3.5619112304       -9.9638716943       -9.9534844391
 C        -4.8107730017       -9.7885975923       -9.1026149906
 C        -4.4922459383       -9.3845552232       -7.6318684301
 O        -4.0023112031       -8.2790843009       -7.4250216376
 C        -4.9813200238      -10.2777126721       -6.5328204092
 C        -6.6167421958      -10.2073823059       -6.5934696847
 O        -7.1730610420      -11.0197441661       -7.2913635009
 C        -7.3393583294       -9.2887455878       -5.6741165865
 C        -8.7993363236       -9.1537434607       -5.9523019635
 C        -9.0168000282       -8.9749613582       -7.4783335750
 O        -8.0890729288       -8.4178988964       -8.1001660512
 C       -10.1605145931       -9.6852848739       -8.3532516093
 C       -11.6092601663       -8.8303586083       -8.1842087269
 O       -12.3062139554       -8.8892232315       -7.1949479842
 C       -12.0595358671       -8.0382597124       -9.4448238948
 C       -13.5638777424       -7.5295767320       -9.4105183972
 C       -13.7743046137       -6.1192096854       -9.7707538910
 O       -12.8988158662       -5.2736479906       -9.8100864607
 C       -15.3343049758       -5.7781583295      -10.0602105630
 C       -15.9873012687       -6.5422739372      -11.2392847463
 O       -15.2374626846       -7.1600360514      -11.9886851133
 C       -17.4484869537       -6.3342605370      -11.5489510894
 C       -16.0762713612       -6.2318813094       -8.7649475830
 C       -15.4920791979       -4.1987565126      -10.3408411182
 C        -9.6651110923       -9.7325808874       -9.8089013987
 C       -10.3912996969      -11.1403694196       -7.8335359160
 C        -4.5539129441      -11.7219714385       -6.7863435737
 C        -4.4040802195       -9.8803082201       -5.1583388981
 C        -1.3141003384       -7.6568609320      -12.2472484170
 C        -1.4769252174      -10.2662889557      -12.0508044283
 C         4.4680466902       -6.8314275555       -7.4219901170
 C         2.9515230981       -8.7924286522       -6.4252030915
 C        -1.4464329142       -3.5417907984       -5.2208931597
 C        -2.0008915938       -5.9002027696       -5.6327950784
 C        -4.5088989271       -0.6299886471      -10.4363069544
 C        -2.1581212190        0.1241164126      -10.7095025837
 C        -3.0086331771        5.7262003589       -6.7728924684
 C        -4.1984772196        6.4045356370       -8.9421672085
 C         4.6915750845        5.6603651584       -8.8299241079
 C         3.4660011599        7.8549415710       -8.8095775829
 C         4.5880558735        4.8762766302      -15.6654338503
 C         3.3592019160        7.0308883083      -16.2742306649
 C        -2.2860122750        2.0104337486      -14.3644220317
 C        -1.3322807343        2.8295137261      -16.6701723850
 C        -5.4782209348        8.1114380102      -14.9362955678
 C        -4.3174711264        9.1476993896      -12.9820366160
 H        -7.2771637357        6.0998356002      -12.6619250038
 H        -7.2116020682        7.8594132574      -13.0818367334
 H        -7.1812458740        7.2603634670      -11.3063601018
 H        -2.5433632683        7.7677398703      -16.3441354106
 H        -3.9324495323        6.7268977719      -16.3397303610
 H        -1.0994277811        6.0899881956      -15.4939935589
 H        -1.8787259340        5.2311197824      -16.9264293597
 H         1.1543369158        2.7783248141      -15.6168755881
 H         0.9386419324        1.9451622718      -14.1142280186
 H         2.9516703184        3.3950527508      -13.8305009737
 H         1.7101661320        4.3838145206      -13.1293538433
 H         2.0586203319        6.3053784337      -12.9049285085
 H         2.2145487325        7.9986961521      -13.4872177612
 H         2.2121572752        8.2773678986      -11.2556653944
 H         3.8975469625        8.3984030396      -11.5477226989
 H         0.4752038088        5.0502159939       -9.8141476161
 H         0.7558799158        6.7066279340      -10.2589701887
 H        -0.0989279355        7.2646244026       -7.8774631981
 H        -0.1847417424        5.3992070038       -7.5776845817
 H        -3.3062888339        3.2076017767       -6.9415838544
 H        -1.5931333875        3.5152478587       -7.2853931360
 H        -1.7060462794        1.1718700214       -7.6656168574
 H        -1.5278399659        2.0721794964       -9.2501197165
 H        -4.7593687691       -2.7923878031       -8.7455368520
 H        -5.0491108011       -1.2546272674       -7.7429090663
 H        -4.8921024670       -3.1369747472       -6.1749036286
 H        -3.3184888805       -2.2155233597       -6.1632431644
 H         0.7682569165       -3.9915405042       -6.0286289362
 H         0.7707772102       -3.1588027647       -7.5366555268
 H         2.5869066706       -4.4464422246       -7.8553701388
 H         1.4108587217       -5.2707227796       -8.7733339390
 H         0.8217540421       -9.0725171931       -8.1808175096
 H         2.0884824656       -9.9176179708       -8.6161676610
 H         0.9583977795      -10.1632652933      -10.7623813915
 H         1.2622200599       -8.3608755187      -10.9793367157
 H        -2.6888300522      -10.3896528953       -9.4598420162
 H        -3.7571061034      -10.7173384210      -10.6235237124
 H        -5.3634388116      -10.7442641318       -9.2050943616
 H        -5.4381579004       -9.0498646727       -9.4891109607
 H        -6.9186627043       -8.2659975463       -5.5594755717
 H        -7.2711152053       -9.6780168725       -4.6658548294
 H        -9.3816736662       -8.3796361082       -5.4027110822
 H        -9.2922261546      -10.0146639583       -5.4101679576
 H       -12.0066736264       -8.5937431433      -10.3943670605
 H       -11.3583498317       -7.2163960411       -9.7259631967
 H       -13.7518027293       -7.5782279629       -8.3406559746
 H       -14.2072713225       -8.1404293897      -10.0368359138
 H       -17.7656065111       -6.8558469023      -12.4417037607
 H       -17.5630342881       -5.2560528492      -11.6525110066
 H       -18.1102234354       -6.5351653408      -10.6864410591
 H       -15.6504225638       -6.2877558608       -7.7943455230
 H       -16.3794274128       -7.2754363207       -9.0540728871
 H       -16.9485741368       -5.5215274108       -8.6061735919
 H       -16.6289102788       -3.9364634856      -10.3189926751
 H       -15.1002726343       -4.0136896892      -11.3177198366
 H       -14.9233395110       -3.7188268430       -9.5844276809
 H       -10.3933263987      -10.1112393420      -10.5307721480
 H        -8.6614488551      -10.3132604284       -9.8496231562
 H        -9.4201351459       -8.7271003404      -10.2018101138
 H       -10.8065067643      -11.1556502127       -6.8178561371
 H        -9.5448076426      -11.7470023882       -7.9251311262
 H       -11.1435960848      -11.6442037473       -8.5332933689
 H        -4.7134895233      -12.2612462485       -5.8701053234
 H        -3.5542357411      -11.7676688297       -7.1885540859
 H        -5.2069664860      -12.0750075814       -7.5950612264
 H        -3.3836061587      -10.1640523427       -5.2679305149
 H        -4.8009022627      -10.4360758408       -4.3744479651
 H        -4.4546413767       -8.8082610882       -4.9442586305
 H        -0.3310418537       -7.8759392317      -12.6860358698
 H        -1.4585433766       -6.7395375414      -11.7508336219
 H        -2.0956648559       -7.7944221794      -12.9446651044
 H        -0.6926613365      -10.1885040008      -12.8872524628
 H        -2.3969771559      -10.5473692804      -12.4997081897
 H        -1.1968713934      -11.1441465596      -11.5337760473
 H         4.2848680889       -5.7872941019       -7.6416365107
 H         4.9360271954       -7.2211917988       -8.2757938944
 H         4.9260061485       -7.0279286585       -6.4577708261
 H         1.9252741634       -9.0358510794       -6.4813173404
 H         3.1388035884       -8.4632187045       -5.3859661258
 H         3.6724863970       -9.4856366337       -6.9015195118
 H        -0.4708795735       -3.6831230740       -4.7539297817
 H        -2.2173868342       -3.5242064747       -4.4706592071
 H        -1.4401967905       -2.5838521815       -5.7249868504
 H        -1.0041150044       -6.3635918012       -5.4838637732
 H        -2.6379212198       -6.7096138277       -6.0903262907
 H        -2.4409731621       -5.8216938325       -4.6509230738
 H        -5.0520288637        0.1209762713      -11.0847041010
 H        -5.2431245051       -0.9270358458       -9.7523921556
 H        -4.2937023677       -1.5180610262      -11.1574752576
 H        -1.1514987660        0.0485655837      -10.2197529072
 H        -2.3307878574        1.1321700311      -11.0017527300
 H        -2.2231644553       -0.5922630326      -11.5140958793
 H        -2.7025807971        4.8173149312       -6.3372034422
 H        -4.0923297432        5.8735151781       -6.5175348545
 H        -2.5460041629        6.6217528852       -6.3422423752
 H        -5.0693984614        5.8049947749       -8.7960424387
 H        -4.0126535063        6.5078024746      -10.0348499738
 H        -4.2504416260        7.4632794224       -8.5330742678
 H         5.2683611627        6.2111719085       -8.0241458928
 H         5.3638483264        5.4733084431       -9.6156986399
 H         4.3918940992        4.7803820190       -8.2372750850
 H         4.2136335644        8.4708476522       -9.1747319370
 H         3.6189528859        7.9197994176       -7.6941541184
 H         2.4977276080        8.1938651879       -9.0016024566
 H         5.6188016988        5.1186249985      -15.7180038921
 H         4.3533896881        4.5579175771      -16.7263501230
 H         4.4001685907        4.0770658799      -14.9624257871
 H         3.5078378504        6.5840686467      -17.2455658117
 H         4.1274576539        7.7293816814      -16.1523495258
 H         2.3991523122        7.5297548992      -16.2900111767
 H        -2.8293155808        2.3276455011      -13.4851748521
 H        -1.5021968378        1.2667309399      -14.2155499429
 H        -2.9910295432        1.5839162753      -14.9719973699
 H        -1.3642615316        1.7672637828      -16.7985531087
 H        -0.4422118328        3.2431444781      -17.0487497702
 H        -2.1682816599        3.2249797882      -17.2862245323
 H        -5.8499317093        7.1457682593      -15.2090565170
 H        -4.8854826575        8.5228698124      -15.7918980775
 H        -6.2756523130        8.8723007467      -14.7726767299
 H        -3.6546134300        8.9317193770      -12.0774352587
 H        -5.2488834869        9.4661313130      -12.6541813814
 H        -3.8518978567        9.7934859901      -13.7668666577
 Na       -2.1768212975        5.5160159590      -12.0741690027
 Na       -2.9043740104       -6.7589196700       -8.9118017183
