232

 C        -6.7047545091        7.3511696860      -12.3646183290
 C        -5.2187325317        7.2683833571      -12.8227367307
 O        -4.4846565985        6.4391923297      -12.3379816312
 C        -4.5834486974        8.1907448323      -13.9669528655
 C        -3.1761322953        7.5728322291      -14.4599550204
 O        -2.2251131020        7.7518316900      -13.7109609260
 C        -3.2410682694        6.7767464937      -15.7648543434
 C        -2.2028781971        5.6832136260      -15.8360863762
 C        -2.3888568143        4.4244718746      -15.0198993097
 O        -3.2414151540        4.2601704899      -14.1907428114
 C        -1.4132368018        3.2038628204      -15.1668603258
 C        -0.2743469936        3.4120650152      -14.0338219058
 O        -0.4438776959        4.0815311000      -12.9957751730
 C         1.0606107995        2.6806533981      -14.1434117869
 C         2.3410576177        3.5482485609      -14.2757036256
 C         2.2184818286        4.7417634241      -15.1187913899
 O         1.2867813014        5.0492130100      -15.8758366580
 C         3.5557796199        5.6867013160      -15.2473877120
 C         4.0376360001        6.3830546050      -13.8557719342
 O         5.1078874744        6.2783351115      -13.2918328338
 C         2.9060006651        7.2591702908      -13.1032296017
 C         3.2385547541        7.5418840081      -11.6651374709
 C         3.2557393357        6.3001281962      -10.8112211829
 O         2.9767077135        5.2365554988      -11.3617325062
 C         3.6078613473        6.3551575102       -9.3976039851
 C         2.3037445932        6.0024471359       -8.5754954042
 O         2.3280734975        5.4372379214       -7.4929072186
 C         1.0253414752        6.5095709543       -9.1923860696
 C        -0.1287430375        6.7832919304       -8.2551585328
 C        -1.5081794852        6.8425989130       -9.0347148242
 O        -1.4094179342        7.2797373818      -10.1642313027
 C        -2.8043341015        6.1909900825       -8.3621671210
 C        -2.6983004394        4.7113201326       -8.9457019263
 O        -3.0309072077        4.5431978566      -10.1365167342
 C        -2.5732108119        3.4594410107       -8.0051329886
 C        -2.2826210539        2.1963459585       -9.0799266667
 C        -3.3481758433        1.1470458069       -9.0105882761
 O        -4.2088877596        1.3241038148       -8.1883893416
 C        -3.3887158383       -0.3182137706       -9.7240944221
 C        -3.0985167269       -1.2350816328       -8.5431566859
 O        -1.9363972724       -1.3358186328       -8.1972837953
 C        -4.2254523271       -1.8716759342       -7.8158568749
 C        -3.6591746562       -2.5941229553       -6.5492776232
 C        -3.1349254699       -3.9378855287       -6.9184880543
 O        -3.6167418270       -4.6392615512       -7.7869088874
 C        -1.7940337455       -4.4961718864       -6.2797748266
 C        -0.6941183188       -4.7736565796       -7.2857886969
 O        -1.0167805572       -5.4285186774       -8.2811088603
 C         0.7295755334       -4.0736284262       -7.1425337369
 C         1.9159132419       -4.8723030679       -7.5365304706
 C         1.8484429839       -6.2786404689       -6.8668803198
 O         1.0735889213       -6.5203695163       -5.9698222167
 C         2.9105889911       -7.3991703768       -7.3894050806
 C         2.2686804526       -7.7505267092       -8.7413704006
 O         2.4821366535       -7.0262904407       -9.6811232242
 C         1.5263097310       -9.0343605872       -9.0097322728
 C         0.7925856742       -9.0248690043      -10.3974323947
 C        -0.6538671112       -8.6742300761      -10.2515496677
 O        -1.0550775558       -8.1923231867       -9.1843859019
 C        -1.6911974539       -8.8749132329      -11.3400084135
 C        -3.2066852993       -9.0074879297      -10.7215192252
 O        -3.9498275643       -8.1041269706      -10.7167351989
 C        -3.6307042663      -10.2903619688       -9.8432021398
 C        -4.8663722409      -10.1723735945       -8.9951592090
 C        -4.6095883249       -9.6853248109       -7.5832240177
 O        -4.0621100055       -8.6218098159       -7.3849460975
 C        -5.2067270648      -10.5196993117       -6.4164421660
 C        -6.8408493418      -10.7266487885       -6.4085005688
 O        -7.2836154086      -11.5846724155       -7.1922178378
 C        -7.6758871258       -9.8057595354       -5.6125715571
 C        -9.0821598087       -9.8366319455       -6.1860618902
 C        -9.1300547932       -9.4232746041       -7.6596565180
 O        -8.2729668790       -8.6559307309       -8.1526066607
 C       -10.1868308446       -9.9792748086       -8.6025931839
 C       -11.4012138639       -8.8624621783       -8.2401003785
 O       -11.7080789054       -8.8215343259       -7.0632765463
 C       -11.8332652708       -7.8059434178       -9.1484916197
 C       -13.3810643278       -7.5229830509       -9.0290867678
 C       -13.8141856321       -6.3202457397       -9.7481079188
 O       -12.9913989097       -5.6613932483      -10.3297947375
 C       -15.2803346416       -5.7672415284       -9.7729071173
 C       -15.9528531108       -6.4522618542      -10.9950292515
 O       -15.2672332910       -7.0716185422      -11.7857584083
 C       -17.4281512725       -6.5551152473      -11.1659967095
 C       -16.0960917489       -6.0442672172       -8.4337438260
 C       -15.1697789775       -4.2593794914      -10.1135248863
 C        -9.6887592738       -9.9170577919      -10.0864691444
 C       -10.7435423323      -11.3530328050       -8.1798950049
 C        -4.6240812284      -11.9958788763       -6.5008068928
 C        -4.7858286416       -9.9137222015       -5.1431501135
 C        -1.8269937359       -7.5902566398      -12.2700709980
 C        -1.4096800199      -10.1443346981      -12.2942753053
 C         4.3416734681       -6.7814246076       -7.6089805022
 C         2.9300162472       -8.6505688235       -6.4435513843
 C        -1.3069002845       -3.7317341224       -5.0554923084
 C        -2.2225888707       -5.8883626804       -5.7044424791
 C        -4.7483246901       -0.4398592576      -10.4401925954
 C        -2.4137391710       -0.6003211115      -10.8411954440
 C        -2.6751450006        6.1498398007       -6.8622445157
 C        -4.1133226086        6.7876695097       -8.9847577037
 C         4.7110580761        5.3381568963       -9.1291907497
 C         3.9399728215        7.8665636529       -8.8284410161
 C         4.7616132043        4.7692157866      -15.6981139862
 C         3.2918646671        6.6503831639      -16.4204903856
 C        -2.2713354255        1.9366227936      -14.8212914807
 C        -0.7190220532        2.9693559688      -16.5837168861
 C        -5.7722964785        8.4004007301      -15.0611779569
 C        -4.2920902221        9.6972949140      -13.5546132742
 H        -7.1711811546        6.6792086358      -13.0447175554
 H        -7.1618154603        8.3409307343      -12.4851594947
 H        -6.8532763733        6.9504635659      -11.3436000276
 H        -2.9548005467        7.4276377774      -16.6157940875
 H        -4.2895864886        6.4873746542      -15.9358365304
 H        -1.2403162557        5.9152272766      -15.4775920473
 H        -2.1085421346        5.4190166773      -16.9394675745
 H         1.0357167926        1.9693814164      -14.9478346089
 H         1.2240693651        2.1870420265      -13.1398928877
 H         3.1415595105        2.9729815903      -14.7631808098
 H         2.6513216906        3.8001834541      -13.2910880366
 H         1.9690521210        6.7443561420      -13.0983583269
 H         2.7922868737        8.1432627823      -13.7440648696
 H         2.5481373421        8.2988040033      -11.1617220334
 H         4.1776842958        8.1036287350      -11.5211406325
 H         0.9315438947        5.7985431814       -9.9828564479
 H         1.2056080117        7.4362865713       -9.7690191423
 H         0.1008036677        7.7323319399       -7.8660793613
 H        -0.0716485120        5.9891961697       -7.4226942575
 H        -3.5992359123        3.1841114905       -7.6326853573
 H        -1.9176078556        3.4912551427       -7.2109191097
 H        -1.3940333102        1.5583054265       -8.6617179980
 H        -2.0279776065        2.5731634371      -10.0972537231
 H        -4.7289853275       -2.5244013725       -8.4369352910
 H        -4.9730361787       -0.9958780615       -7.4368427354
 H        -4.3862078850       -2.7670248770       -5.8046585220
 H        -2.8515405343       -1.9977192027       -6.0988513935
 H         0.8951824012       -3.4920417647       -6.1730261153
 H         0.6000271994       -3.2075669453       -7.8124823362
 H         2.8195457178       -4.3490074429       -7.1907483051
 H         2.0111166657       -4.9973468685       -8.6112841942
 H         0.9827833870       -9.3473478060       -8.2029682508
 H         2.2761566848       -9.8046138153       -9.0883791666
 H         0.8549905522      -10.0042505527      -10.7914551199
 H         1.2520173235       -8.3243334445      -11.1636968150
 H        -2.6766928576      -10.6296196252       -9.3089307047
 H        -3.7673277303      -11.0901719982      -10.5338857043
 H        -5.2506362376      -11.2363732807       -8.8843855948
 H        -5.6804337744       -9.5226275745       -9.3827372584
 H        -7.3778198396       -8.7396946143       -5.5494652766
 H        -7.6846258270      -10.0140064816       -4.5501580327
 H        -9.7162585613       -9.2053447704       -5.5369240614
 H        -9.5116560295      -10.8419581943       -5.9152222701
 H       -11.6194850097       -7.8769104389      -10.2574494389
 H       -11.3459071505       -6.8010267677       -8.9241506993
 H       -13.5152242999       -7.4162584763       -7.9035164762
 H       -13.9618535692       -8.3797086344       -9.4059798392
 H       -17.6275445540       -7.2148394255      -11.9944058414
 H       -17.9041846809       -5.5851366663      -11.2855159326
 H       -17.8725840397       -6.9021259821      -10.2027197424
 H       -15.9280873177       -5.3692052761       -7.6232251887
 H       -15.7826348967       -6.9838857140       -7.9298413214
 H       -17.1560362101       -6.0425589825       -8.7989206213
 H       -16.1765599960       -3.8352057947      -10.0600154696
 H       -14.5727874270       -4.1342005159      -11.0311694997
 H       -14.7677142872       -3.9065232415       -9.1836208992
 H       -10.4241786155      -10.3096861532      -10.8194682272
 H        -8.7385280836      -10.4506308808      -10.2253291367
 H        -9.4251410625       -8.9254153213      -10.4121786005
 H       -11.4322970758      -11.2217034850       -7.3655310134
 H       -10.0684869506      -12.0366021422       -7.7834675618
 H       -11.1925609658      -11.8079039162       -9.0315603050
 H        -4.7360797226      -12.4156815420       -5.5346302971
 H        -3.6211148995      -11.9680426940       -6.8948221427
 H        -5.2804663951      -12.5336007055       -7.1492593737
 H        -3.6826472925      -10.0592352737       -5.1460892012
 H        -5.2130660184      -10.3757123251       -4.2940214469
 H        -4.9433546271       -8.8095902502       -5.1975679371
 H        -0.8163188044       -7.3823185001      -12.6722233886
 H        -2.1467999431       -6.7686988650      -11.6536538146
 H        -2.5968930602       -7.8992684132      -12.9709108060
 H        -0.3746439097      -10.0417938621      -12.7608238313
 H        -2.0695528985      -10.2612664908      -13.1406689600
 H        -1.5127851167      -11.0647155376      -11.8274364849
 H         4.5222251437       -6.8164236637       -8.6776750753
 H         4.9539996604       -7.3938884534       -7.0575335260
 H         4.3691797595       -5.7706180896       -7.2087547907
 H         1.9190805057       -8.8992270830       -6.3070639181
 H         3.3342222407       -8.3624917035       -5.4836908606
 H         3.4692190977       -9.3338488931       -7.0219795085
 H        -0.5206318410       -4.2441398700       -4.4749787375
 H        -2.1140428296       -3.6857731322       -4.3645281331
 H        -0.9452550296       -2.7521734203       -5.3043885239
 H        -1.5684993623       -6.3114194741       -4.9893398155
 H        -2.0679802633       -6.7038034707       -6.4173012214
 H        -3.1839387409       -5.8686759246       -5.2035125516
 H        -4.7712258271        0.1719311719      -11.3108712446
 H        -5.5890523781       -0.1866588904       -9.8780017051
 H        -4.9337430306       -1.3874425724      -10.9247595172
 H        -1.4277949239       -0.4055085892      -10.4583412091
 H        -2.6434587777       -0.0424053450      -11.7137919788
 H        -2.4400547054       -1.6608611304      -11.0362564529
 H        -1.6584313250        6.1084868376       -6.4085233396
 H        -3.3010522643        5.3308342647       -6.4237766897
 H        -3.0940045107        7.0812039596       -6.4943605627
 H        -4.9542428546        6.2164961576       -8.6119703054
 H        -4.0665481938        6.8512610131      -10.1004733710
 H        -4.1517614365        7.9199558810       -8.7510194659
 H         5.3821342233        5.1941898909       -9.9565400103
 H         4.3521807335        4.3326416795       -9.0152577417
 H         5.2980956501        5.6647840881       -8.3098374146
 H         4.9505800025        8.1058072608       -9.1476872140
 H         3.9676791616        7.8122391248       -7.6772541049
 H         3.2421985627        8.6578327894       -9.0460590464
 H         5.6698270060        5.2819917004      -15.8296895331
 H         4.5248692626        4.0850574265      -16.5719403239
 H         4.8907435203        4.1093566689      -14.8447893466
 H         3.0843644634        6.1269998535      -17.3292556219
 H         4.1609700416        7.1682786390      -16.5152192786
 H         2.5195136415        7.3593566672      -16.2719892858
 H        -2.5882898386        2.0178472372      -13.7666132661
 H        -1.6824695148        0.9867168437      -15.0463978340
 H        -3.2039713844        2.0373033684      -15.3996921596
 H         0.0478488224        2.2346324175      -16.4754443529
 H        -0.1955921850        3.8960219613      -16.8396877937
 H        -1.3896563330        2.7175686305      -17.3850372720
 H        -6.1863883869        7.4406252128      -15.2820435529
 H        -5.4236242666        8.9301795634      -15.9280112693
 H        -6.5180750354        9.0877723238      -14.6995864434
 H        -3.4207516705        9.7923613481      -12.9112209321
 H        -5.1797288983       10.1132888224      -13.2372800605
 H        -4.2128414395       10.1588257836      -14.5419085650
 Na       -2.2821211772        5.6079133342      -12.0628215898
 Na       -2.9960999705       -7.0353267999       -8.5670638171
