232

 C        -6.7364217090        8.0365936898      -12.4637320393
 C        -5.3602562533        7.4630940092      -13.0318081937
 O        -4.6902277285        6.7428331324      -12.3059668749
 C        -4.6750822001        8.2089995354      -14.1725789415
 C        -3.3240658056        7.5336903281      -14.6309028269
 O        -2.3035535535        7.6926808794      -14.0316791864
 C        -3.3446576383        6.6100379720      -15.8302472196
 C        -2.1010259679        5.7985623442      -15.9813872408
 C        -2.2152923361        4.5621298569      -15.0602197145
 O        -2.8784988774        4.6190013215      -14.0148311597
 C        -1.2009786088        3.3737838789      -15.1303986459
 C        -0.0211883116        3.6710923559      -13.9444351790
 O        -0.2878833610        4.3011994520      -12.9197292932
 C         1.1743163682        2.7121872227      -13.9474660127
 C         2.4427688006        3.4650939171      -13.8114305482
 C         2.3377109422        4.6298257131      -14.8152573853
 O         1.2138110451        5.0584889694      -15.0831975757
 C         3.5989012701        5.4049975676      -15.2912258246
 C         4.0720465858        5.9788378698      -14.0270280075
 O         5.1897782894        5.8248942150      -13.5915517430
 C         3.0506409098        6.9781668851      -13.3638315522
 C         3.5052357313        7.3954922378      -11.9626848092
 C         3.2669158260        6.2134379901      -10.9923176245
 O         2.5198607815        5.2734201523      -11.2296660322
 C         3.6717503218        6.3995143322       -9.5129814642
 C         2.3956908645        6.4977824400       -8.5852400846
 O         2.4378868960        5.8174333769       -7.5688684891
 C         1.1495738626        7.2031064016       -9.1512254818
 C        -0.1548938389        7.0500873502       -8.2789043616
 C        -1.3752903194        6.7331598426       -9.2039515372
 O        -1.3610567277        6.8820883325      -10.3880618877
 C        -2.7705961403        6.1869794617       -8.4987835020
 C        -2.9774996576        4.8237550410       -9.1836458880
 O        -3.1654177063        4.6672086455      -10.3955371767
 C        -2.3453013986        3.5292251858       -8.4672196971
 C        -2.3694379665        2.2418704227       -9.3245300225
 C        -3.5716693324        1.2053671370       -8.8811961126
 O        -4.4776067266        1.4349529908       -8.1119059184
 C        -3.4466017138       -0.1784788906       -9.6268740393
 C        -2.9450191293       -1.2475226061       -8.5264789893
 O        -1.7491645559       -1.3853634762       -8.3380181407
 C        -4.0908286000       -1.8634155232       -7.6412340341
 C        -3.6976336986       -2.7340463929       -6.4795870459
 C        -3.1402182248       -4.0818220565       -6.8160285028
 O        -3.7204114560       -4.7504527198       -7.6519771872
 C        -1.8902152034       -4.6796924615       -6.0239874650
 C        -0.8179519952       -4.7142981641       -7.1236366223
 O        -0.9728551694       -5.5026787238       -8.0377352045
 C         0.5225010353       -4.0030800085       -7.0593388991
 C         1.6752428916       -4.7696342764       -7.7226694849
 C         1.7395022268       -6.1210153958       -7.0569120211
 O         0.9675786488       -6.4519684443       -6.1871868245
 C         2.7283776442       -7.2705024155       -7.5189883759
 C         2.1853958423       -7.7010439788       -9.0077743387
 O         2.3566041445       -6.9171756035       -9.8757055348
 C         1.5935854602       -9.1304222935       -9.1578758510
 C         0.5341022520       -9.2852958247      -10.3347435338
 C        -0.8972670529       -8.6860430043      -10.0191464598
 O        -1.0709836656       -7.9559218466       -9.0814841273
 C        -2.1039795286       -8.9501680307      -11.2194106302
 C        -3.3744795028       -9.0457481426      -10.3196254330
 O        -3.9825922634       -8.1059731489       -9.9462823653
 C        -3.7579102062      -10.5432312226       -9.8303279883
 C        -4.9708630161      -10.4795462238       -9.0047187606
 C        -4.6478259687       -9.8658342622       -7.6146298847
 O        -4.1094290657       -8.7488130533       -7.4622986197
 C        -5.0470334631      -10.7450718497       -6.3488040571
 C        -6.6821555358      -11.0132898741       -6.5905012406
 O        -7.0943988651      -11.9498927500       -7.2938957905
 C        -7.6023598995      -10.1479069171       -5.7935104751
 C        -9.0084884142      -10.3169157950       -6.3691596353
 C        -9.0585205353       -9.7276682430       -7.7876654345
 O        -8.1090956912       -9.0229548056       -8.2000885173
 C       -10.3345571432      -10.0240208695       -8.7667270699
 C       -11.3457952993       -8.9646718364       -8.2034871845
 O       -11.7331146975       -8.9313093367       -7.0559543805
 C       -11.9653087135       -8.0529978228       -9.2680929205
 C       -13.1892554706       -7.2403291047       -8.7887801399
 C       -13.6494453008       -6.1810494959       -9.7849295694
 O       -12.9153691557       -5.7170419684      -10.6299755430
 C       -15.1533349432       -5.7179896540       -9.6491865914
 C       -15.9945354770       -6.6076511069      -10.7166468995
 O       -15.2416262856       -7.1398279152      -11.5073108701
 C       -17.5142397518       -6.6515713591      -10.8091744144
 C       -15.7834690112       -6.0235261993       -8.2536305733
 C       -15.3929148177       -4.1176504990      -10.0675966362
 C       -10.0558906984       -9.8980618929      -10.2807106771
 C       -10.9973461446      -11.4137567882       -8.5702170500
 C        -4.3120613246      -12.1608371487       -6.2297878653
 C        -4.7668044499       -9.9311899530       -5.0507837034
 C        -1.9009013283       -7.5551525932      -12.0417858948
 C        -1.7535957927      -10.1973083200      -12.0540679848
 C         4.1974905677       -6.7137939276       -7.7040553749
 C         2.6873887629       -8.4701168609       -6.5382784000
 C        -1.3644107869       -3.7956355216       -4.7836722768
 C        -2.1411069151       -6.1367974641       -5.4082185159
 C        -4.8929053576       -0.4764021508      -10.1905145898
 C        -2.3554390018       -0.1751092264      -10.6965119793
 C        -2.6451812505        5.9407692395       -7.0036441969
 C        -3.8928950883        7.2426437468       -8.8998058066
 C         4.5377138916        5.1238277980       -9.0777192518
 C         4.6741557719        7.7200049555       -9.3600369703
 C         4.8081787995        4.5141371763      -15.8316846328
 C         3.2293929257        6.5488268337      -16.3055570569
 C        -1.7722199161        2.0496453679      -14.6568571188
 C        -0.6258611188        3.1760545992      -16.5655813561
 C        -5.5634436996        8.5307275463      -15.3963894578
 C        -4.2814198988        9.6175162716      -13.4845232759
 H        -7.3889907504        8.3638123491      -13.2632876216
 H        -6.6771847113        8.8670688514      -11.7398705433
 H        -7.2122863507        7.2350254909      -11.8833367126
 H        -3.6689732780        7.1328037963      -16.7336643340
 H        -4.1913945379        6.0034438785      -15.4913407864
 H        -1.2136377969        6.3765568843      -15.6218967006
 H        -1.8580742450        5.4501152913      -16.9688614731
 H         1.2248485410        2.1795205286      -14.8801386193
 H         1.0447954474        2.0847168130      -13.0789770576
 H         3.3755196428        2.8027038313      -13.9181493066
 H         2.4000014367        3.8822914900      -12.8008847761
 H         2.0609416193        6.5649661523      -13.4504656890
 H         3.0722825943        7.8750362652      -14.0267008017
 H         2.9350623280        8.2395221246      -11.5326098036
 H         4.4684496388        7.8181866906      -12.0098398625
 H         0.9645926579        6.6866819618      -10.0869284362
 H         1.4146966017        8.2443752676       -9.4770015991
 H        -0.5247878860        7.8954805203       -7.7016420344
 H        -0.0155929342        6.2486259546       -7.5676017018
 H        -2.7854887624        3.2533150691       -7.4856593556
 H        -1.3115966987        3.7631544148       -8.3253146063
 H        -1.3459941016        1.7929605036       -9.1541218317
 H        -2.4269006965        2.4737925603      -10.3352296935
 H        -4.8216990602       -2.3882835716       -8.2449128111
 H        -4.6775220665       -1.0039235521       -7.1183047375
 H        -4.5560627984       -2.8167578809       -5.7669211325
 H        -2.9134055192       -2.2341555751       -5.9272789375
 H         0.7563091868       -3.7311996344       -6.0049927009
 H         0.3500943282       -3.0750215832       -7.5305190506
 H         2.6165062306       -4.2608071986       -7.5796715582
 H         1.4564259117       -4.8556767632       -8.8237519660
 H         1.1954354407       -9.4729746369       -8.1278298209
 H         2.5011691943       -9.7871144516       -9.3925278512
 H         0.3775785629      -10.3224778188      -10.5968917006
 H         0.9457641091       -8.8243003788      -11.2273202123
 H        -2.8831534886      -11.0386553950       -9.3235025737
 H        -3.9510272773      -11.0537871344      -10.8003371910
 H        -5.3855968079      -11.5165583630       -8.7909590889
 H        -5.7252345458       -9.8213061252       -9.4306659174
 H        -7.3419781102       -9.0856660449       -5.7080408575
 H        -7.6676653706      -10.4070814063       -4.7314851009
 H        -9.6405168595       -9.8142774289       -5.6948951388
 H        -9.2293723863      -11.3514923109       -6.1991961798
 H       -12.3672732334       -8.5417489316      -10.1040556657
 H       -11.1857604112       -7.3527945766       -9.5972310989
 H       -12.9689457661       -6.9270302820       -7.7876041061
 H       -13.9639176351       -8.0514352019       -8.5872364208
 H       -17.8538052116       -6.5895146841      -11.8382163282
 H       -17.8888145306       -5.8438870827      -10.1834294066
 H       -17.8999487152       -7.5764100070      -10.3661565912
 H       -15.0520543969       -6.0611122961       -7.4997696312
 H       -16.2582656438       -7.0362850662       -8.2814846168
 H       -16.6678258574       -5.4141217130       -8.0348388361
 H       -16.5233837668       -4.0906206911      -10.2558969721
 H       -14.8483173568       -4.0118446441      -10.9591334670
 H       -15.2225939136       -3.4598495421       -9.2674569232
 H       -10.9161706092       -9.8915933306      -10.8841601563
 H        -9.4954002243      -10.7786306320      -10.7068149870
 H        -9.5002084120       -9.0253429259      -10.5206222194
 H       -11.1121119452      -11.5971009629       -7.4751983018
 H       -10.3848100730      -12.2421581944       -8.8626495878
 H       -12.0083368738      -11.4559204879       -9.1401531323
 H        -4.9739079548      -12.9014169907       -5.7154791722
 H        -3.4414612436      -11.9769134794       -5.6161664259
 H        -4.1376526812      -12.5404572126       -7.2823828140
 H        -3.7105348783       -9.7470268176       -4.9611084461
 H        -5.0960371067      -10.5748927074       -4.2683209543
 H        -5.3390781215       -8.9627138443       -5.0759254548
 H        -0.9401188528       -7.6862770736      -12.6107668976
 H        -1.7740361320       -6.7155005111      -11.3807400025
 H        -2.7034762855       -7.5402284874      -12.7571134393
 H        -0.9157459429       -9.9275994508      -12.8035786438
 H        -2.5134128399      -10.5613667016      -12.7141121384
 H        -1.4521919759      -11.0369299467      -11.4441441943
 H         4.3434359614       -6.4314468102       -8.7678748238
 H         4.8335116658       -7.4225286019       -7.2055506472
 H         4.2651934189       -5.7277116301       -7.1479198440
 H         1.6509170595       -8.7051788775       -6.4327938475
 H         3.0773941576       -8.0235615040       -5.6033306930
 H         3.3621482802       -9.2569650682       -6.9872181966
 H        -0.4303515319       -4.2060862889       -4.3756894399
 H        -2.0771677408       -3.5998320187       -3.9389907693
 H        -1.1455529288       -2.7653057661       -5.1379207070
 H        -1.2791143962       -6.8122714542       -5.3038412367
 H        -2.7274039130       -6.8656779796       -6.0112050611
 H        -2.4814854410       -6.0201503775       -4.3988156830
 H        -5.3551096902        0.2981378501      -10.8330207836
 H        -5.5877750016       -0.6426925689       -9.4361489473
 H        -4.9930003169       -1.4324564578      -10.8155090552
 H        -1.3106035074       -0.1962465723      -10.2238536729
 H        -2.5224284669        0.6478452857      -11.4063156586
 H        -2.4742606862       -1.0410298653      -11.3610764854
 H        -2.0975556169        5.0622493787       -6.8295168139
 H        -3.5843827249        5.8083035617       -6.4828478957
 H        -2.0407440709        6.6628901587       -6.4718703805
 H        -4.8115532053        6.9697999404       -8.5018880589
 H        -3.9689403917        7.1344060817       -9.9675702226
 H        -3.7519227762        8.3135203644       -8.6859339377
 H         4.7023605005        4.2618210595       -9.7859905665
 H         4.1225058463        4.6608748649       -8.2094074989
 H         5.5563300608        5.4785008721       -8.7650375299
 H         5.4245682495        7.7583065480      -10.1227879755
 H         5.0690761903        7.7043406117       -8.2533341474
 H         4.0471417825        8.6119686591       -9.5383220227
 H         5.6778697944        5.0870627785      -16.0270139471
 H         4.4583756801        3.8805084883      -16.6666566171
 H         5.0643913605        3.7818762482      -15.0858649439
 H         3.2006167695        6.0465268526      -17.3433790626
 H         3.9011133517        7.4211525090      -16.2651158401
 H         2.1808224938        6.9908941304      -16.1122469355
 H        -2.3358894891        2.1900341303      -13.7302686971
 H        -0.9444404310        1.3724433444      -14.3829783408
 H        -2.2954788508        1.6733126372      -15.4591711714
 H        -0.0905517463        2.2348679879      -16.7379549379
 H         0.0488670925        3.9786439834      -16.8381787633
 H        -1.5122654947        3.2011273507      -17.2888789155
 H        -5.9527693735        7.5942257219      -15.8025903586
 H        -4.9940726849        9.0729051015      -16.2052318689
 H        -6.4865966105        9.0691158718      -15.0545584570
 H        -3.6242827452        9.3466579104      -12.6305892596
 H        -5.1480321127       10.1516996820      -13.2829651071
 H        -3.7035914171       10.1505171891      -14.2914677292
 Na       -2.3199888625        6.0520436877      -12.3463839257
 Na       -2.9441346967       -6.7406193949       -8.4693472768
