232

 C       -21.5254893203       -7.0529541344       -1.9372517943
 C       -20.6633141825       -6.1965300327       -2.9074797634
 O       -19.6279390612       -5.7490230329       -2.4060117437
 C       -21.0859037661       -6.0185396005       -4.3932939139
 C       -19.8764352444       -5.2931791835       -5.0575586894
 O       -19.8230476769       -4.0926196418       -4.9538490007
 C       -18.7267941569       -6.0393071882       -5.7474541877
 C       -17.7662550713       -4.9606447324       -6.3033194474
 C       -17.2629380239       -4.1600438522       -5.1137194800
 O       -17.1438401568       -4.7258735312       -4.0619940149
 C       -16.8799198880       -2.5892160446       -5.2371535524
 C       -16.6352322713       -2.1360589427       -3.8018741225
 O       -17.5922363381       -1.6152560017       -3.2076188820
 C       -15.2192036001       -2.2408559595       -3.0143047235
 C       -15.3110486044       -1.9297792189       -1.5062452834
 C       -16.0553552415       -2.9381072001       -0.6132513067
 O       -17.1863388663       -3.3132354501       -0.9175327086
 C       -15.3415749147       -3.5878593361        0.5832116609
 C       -14.0612937866       -4.5130393012        0.0517430449
 O       -12.9506071423       -4.4028971639        0.4018789437
 C       -14.5039952665       -5.7880328352       -0.8861094360
 C       -13.2643088576       -6.6485372502       -1.2183175331
 C       -12.7595561076       -6.4753646343       -2.6952144392
 O       -13.2984232507       -5.6184750870       -3.3851897497
 C       -11.7134619093       -7.3900513019       -3.4795773090
 C       -10.4979570544       -6.3809858745       -3.7565163807
 O       -10.2019838751       -5.3795165868       -3.1762341628
 C        -9.5395024757       -6.9973533702       -4.8428253031
 C        -8.0720754901       -7.0410292416       -4.1603106112
 C        -7.1485341371       -5.8149909745       -4.4906208703
 O        -6.8686770974       -5.6188997406       -5.6431362533
 C        -6.5452524135       -4.9639452659       -3.3518145768
 C        -4.9861735218       -5.3220574901       -3.2866621216
 O        -4.2537557128       -5.1189149154       -2.3412657665
 C        -4.4005587426       -5.8640974134       -4.5588915917
 C        -2.8986873432       -6.0503738215       -4.4977555227
 C        -2.2201416176       -4.6942977867       -4.7939172875
 O        -2.8240949197       -3.7092175603       -5.1394863313
 C        -0.6337988880       -4.6800103774       -5.0078039223
 C        -0.4839342430       -5.0327550297       -6.5129996287
 O        -0.6390844166       -6.1913359882       -6.8844966205
 C         0.0739893644       -3.8794747042       -7.3833865207
 C        -0.0053999297       -4.1894291881       -8.9199418122
 C         1.2422927870       -4.0936952026       -9.6417026294
 O         2.3221407214       -3.7241321782       -9.1544953262
 C         1.2830890730       -4.5339498956      -11.1332860825
 C         1.6949934447       -3.3230638327      -11.9676961611
 O         0.8050482633       -2.5987631467      -12.3421844489
 C         3.2714147730       -2.9342489912      -12.1606457651
 C         3.3172642303       -1.9334031797      -13.2808705906
 C         4.7722786278       -1.3084428651      -13.3003702362
 O         5.3043929625       -0.9794940450      -12.2555634227
 C         5.4216036995       -0.9686361517      -14.6798398839
 C         5.0270121433        0.4484783799      -15.3107615528
 O         4.9399874790        0.5320347949      -16.5005958467
 C         4.4316426211        1.5566690183      -14.4475212173
 C         5.4757720524        2.3950081439      -13.7065617761
 C         6.7055390236        2.6845765077      -14.5102660132
 O         7.0550494431        1.8168241177      -15.3585170581
 C         7.7010984016        3.8589031309      -14.2261984521
 C         6.8623937329        5.3411703827      -14.3903632727
 O         5.8194079795        5.4207844128      -13.8495761834
 C         7.3518518832        6.3120650045      -15.4657001656
 C         6.1454750977        6.8613055889      -16.2763945744
 C         5.5271142626        5.6798149204      -16.9671243149
 O         5.7230749781        4.5844419896      -16.5760766340
 C         4.8317385039        6.0293684251      -18.3553090138
 C         5.9903042461        6.5390816082      -19.3584051167
 O         6.6520336133        7.5215844593      -19.0133914915
 C         6.2558308421        5.6983394548      -20.6409833643
 C         7.7286252536        5.9004925622      -21.0076861696
 C         8.1092291940        5.3427111197      -22.3688539196
 O         7.2170633011        5.2305609518      -23.1808691143
 C         9.5795499159        4.8927422098      -22.5433056238
 C         9.5852190931        3.2617895280      -22.2405413990
 O         9.4505641479        2.4563397734      -23.0539656471
 C         9.8582972646        2.8574771890      -20.7034261934
 C         9.4616131393        1.3698403278      -20.3855663485
 C         8.1051232814        1.2468812405      -19.6941501913
 O         7.5903502640        2.2032718515      -19.1564326685
 C         7.4014237558       -0.1594643830      -19.7338056438
 C         5.9000101123       -0.0332512751      -20.0211697097
 O         5.3809341294        0.9707260346      -19.6006219998
 C         5.0522686098       -1.1664304641      -20.7478313922
 C         8.0683925215       -1.0314274654      -20.7676693134
 C         7.5091731623       -0.7149510699      -18.2452960054
 C         9.8719516281        5.2024581154      -24.0896911811
 C        10.5493387190        5.6131777695      -21.7090874207
 C         4.0366341842        4.7104902085      -18.8454098086
 C         3.7935368374        7.1598243145      -18.1107399487
 C         8.1164792912        3.8841636291      -12.6403912441
 C         8.9789266172        3.8269986027      -14.9561903488
 C         6.9864909448       -1.1673896684      -14.5709766925
 C         4.9410311398       -2.0518497953      -15.6362708707
 C         2.4914695610       -5.5834358673      -11.2146644703
 C         0.0605955330       -5.2164027134      -11.6461806265
 C        -0.0991478953       -3.3498684035       -4.5027993481
 C         0.1016744697       -5.7539374727       -4.0954813259
 C        -6.6258916228       -3.4183439654       -3.7382237680
 C        -7.2769502458       -5.1578565344       -2.0290543568
 C       -11.3395894380       -8.5416651806       -2.6309264227
 C       -12.4232719834       -7.8609440195       -4.8034550866
 C       -14.8275862128       -2.4777679634        1.5316961192
 C       -16.3270793743       -4.4402788333        1.4419512442
 C       -15.5477483637       -2.5205216559       -6.1535333397
 C       -17.9872892218       -1.6720899235       -5.8561314494
 C       -21.5253822658       -7.2821428841       -5.0261402613
 C       -22.2898388671       -5.0284248007       -4.2727959233
 H       -22.4464131203       -7.4395893408       -2.4142168806
 H       -21.8402784518       -6.2616904239       -1.2416221993
 H       -20.9268551290       -7.8638689531       -1.5750358483
 H       -19.0813751653       -6.6040949857       -6.6044896000
 H       -18.2142040958       -6.6404251975       -4.9889223649
 H       -18.3160752860       -4.3480145437       -7.0312360523
 H       -17.0102852959       -5.4834880633       -6.8223991836
 H       -14.6054262442       -1.4495272390       -3.4562824455
 H       -14.7741016854       -3.1386540817       -3.3577250008
 H       -15.7892960633       -0.9542344379       -1.2744335297
 H       -14.3146672556       -1.9101125302       -1.1033098958
 H       -15.1341727371       -5.5397198287       -1.7509138833
 H       -15.1528538760       -6.4027256129       -0.2494207998
 H       -13.5858927976       -7.6490583768       -1.1390368670
 H       -12.4498511801       -6.3340195951       -0.4881898306
 H        -9.3247355101       -6.3989380764       -5.6869714945
 H        -9.8278521991       -7.9778294380       -5.1844183478
 H        -7.7489629022       -8.0236103445       -4.6289143101
 H        -8.1539229698       -7.2526603380       -3.1105221682
 H        -4.6405340095       -5.1117463652       -5.3217091462
 H        -4.8612684793       -6.7895017838       -4.8992618025
 H        -2.5559593538       -6.7251139215       -5.2582348752
 H        -2.6696206129       -6.3215253428       -3.4784932658
 H         1.0859473552       -3.7219103030       -7.0296115285
 H        -0.5985842384       -3.0214728397       -7.1858399950
 H        -0.6964128881       -3.6172715635       -9.4858808172
 H        -0.2110852033       -5.2839635703       -9.1306167306
 H         3.7236555678       -3.8632539529      -12.4348451185
 H         3.4691048836       -2.4928361283      -11.1744025485
 H         2.6621602670       -1.1056952997      -13.1727672532
 H         3.0370105159       -2.3788980416      -14.1916921335
 H         3.8410178045        1.1800124042      -13.5324237697
 H         3.9885187052        2.2284338790      -15.2113364154
 H         5.8493078845        1.9186385764      -12.8168476851
 H         5.0128330714        3.3236076688      -13.4532768690
 H         7.9918296182        5.8485792638      -16.2448394760
 H         8.0395297405        7.0844373388      -15.0277198395
 H         6.4283705876        7.5648182991      -16.9861803544
 H         5.4799947177        7.3046966583      -15.6030865667
 H         5.6301019064        5.9714415063      -21.5033006589
 H         6.0466267102        4.6037176275      -20.5650012307
 H         8.1966289020        5.3104147336      -20.2399923716
 H         8.3054393172        6.8670471304      -20.8930782633
 H         9.3761298405        3.6479624790      -20.0900124176
 H        10.9300210914        3.0606939684      -20.6202443519
 H        10.0895783091        0.7313519555      -19.7882704457
 H         9.3906918556        0.9567372831      -21.4584974427
 H         5.1473062086       -1.9751105546      -20.0835707383
 H         5.3910889214       -1.4458835247      -21.7566136036
 H         4.0088353677       -0.8940876382      -20.9909361729
 H         7.8468834301       -2.0939886128      -20.6924859262
 H         9.1635681456       -1.0847321857      -20.5817945013
 H         7.9154936603       -0.7878740627      -21.7802428291
 H         6.9903305559       -1.6665739541      -18.0797643142
 H         7.0903421859       -0.0953527277      -17.4770474152
 H         8.5809490580       -0.8197425569      -18.0401292199
 H         8.9604264007        4.8998483650      -24.5781466003
 H        10.6577072509        4.4956178256      -24.4144431322
 H        10.2394438019        6.2267196041      -24.3523139181
 H        11.4463853799        4.9883534702      -21.8143659830
 H        10.2946583662        5.6882363528      -20.5884957375
 H        10.8252686638        6.5352529824      -22.2394347371
 H         3.2466404979        4.4376673586      -18.1661234914
 H         4.6324638185        3.7710571170      -19.0791497473
 H         3.5618140338        4.8738465532      -19.7718270346
 H         4.2342005810        8.0978700925      -17.9839310769
 H         3.3276922496        6.8609703004      -17.1524555400
 H         3.1357432705        7.1930159464      -18.9761432450
 H         8.9087127643        4.6770813629      -12.6671120216
 H         8.6174403912        2.9590647217      -12.4979136062
 H         7.3759221277        4.2271558657      -11.9233862987
 H         9.5641350092        2.9139611637      -14.5905931249
 H         9.5152588128        4.7710423488      -14.7052600921
 H         8.7694984876        3.5166903213      -16.0200775923
 H         7.2940142339       -2.2374550958      -14.7625565713
 H         7.2487946174       -0.8833290472      -13.5795929746
 H         7.5584174298       -0.3708488272      -15.1943741598
 H         5.1434778797       -3.0764511191      -15.3429010173
 H         5.5095151453       -2.0356004803      -16.5973492779
 H         3.9025313028       -1.8519397493      -15.8720784757
 H         2.2678743659       -6.3764231969      -10.6069737303
 H         3.4311268318       -5.1858187255      -10.7989058397
 H         2.6632691097       -6.0200167021      -12.1832856815
 H        -0.7047932028       -4.4883283278      -11.7762368177
 H        -0.2805965237       -5.9288689090      -10.8846859542
 H         0.2048700081       -5.8197142125      -12.5334995503
 H        -0.2241871995       -3.2920695752       -3.4555938182
 H        -0.7749763266       -2.5638954231       -4.8544670383
 H         0.9685816563       -3.2401369145       -4.8237815520
 H         0.4211503150       -6.6045525235       -4.7348899437
 H        -0.4935451042       -6.0352040182       -3.2405110668
 H         0.9195323981       -5.2622009634       -3.5928166476
 H        -5.8807747246       -3.2396288884       -4.5935755317
 H        -6.2716245418       -2.8019574787       -2.8797235655
 H        -7.6274830200       -3.1068908207       -3.9996600480
 H        -8.3491856150       -5.1932483405       -2.2451171376
 H        -7.1571843638       -4.3791526623       -1.3203190827
 H        -6.9874034946       -6.1331875520       -1.5815014529
 H       -12.2420473592       -8.9773760271       -2.1766834711
 H       -10.5991819911       -8.2410045716       -1.8147757277
 H       -10.7443770060       -9.2379351239       -3.1262177327
 H       -13.4108575621       -8.0449218340       -4.4892039487
 H       -11.8874334247       -8.6693009301       -5.2537085836
 H       -12.4990406003       -7.0409826967       -5.5442606114
 H       -14.1425014331       -2.9330281582        2.2741580222
 H       -15.5947812843       -2.0262891836        2.0650997448
 H       -14.3450218061       -1.7553766888        0.9876323672
 H       -16.0745446402       -4.2624882362        2.4933870681
 H       -16.3051934016       -5.4953460184        1.1570352229
 H       -17.3522334103       -4.0826746407        1.2493817724
 H       -15.5959255982       -2.9155918650       -7.1912049248
 H       -14.7494682154       -2.9692154365       -5.6771095135
 H       -15.3567504618       -1.4425735216       -6.3363723336
 H       -18.9706587995       -2.0374595053       -5.5209373210
 H       -17.7086438363       -1.7075265897       -6.9102925769
 H       -17.9813116198       -0.6780738612       -5.3587181229
 H       -20.6339540764       -7.8837169815       -5.4429770206
 H       -22.1221862569       -7.1302994416       -5.8743742535
 H       -22.1279365186       -7.9220124442       -4.2845144575
 H       -23.2006616631       -5.4665362717       -4.7821544851
 H       -21.9792227134       -4.1705546486       -4.8411343401
 H       -22.4460950383       -4.7427913843       -3.2157527549
 Na      -18.8027887656       -3.4042003208       -2.6468509705
 Na        5.9693291232        2.3308924651      -17.6272030241
