232

 C        -6.8117169143        8.1069703094      -12.7261969377
 C        -5.3406346542        7.7238732269      -12.9687529059
 O        -4.7742547616        6.8801905357      -12.3317971026
 C        -4.6046491812        8.4364151954      -14.2159472821
 C        -3.4019081948        7.5797049325      -14.7307177032
 O        -2.4049971606        7.5785135541      -14.0223976940
 C        -3.4265208898        6.5383106596      -15.9661673040
 C        -2.1740966024        5.6709696747      -16.0421612053
 C        -2.1358026225        4.6084985421      -14.8647320398
 O        -2.9819663523        4.6309847972      -13.9980298097
 C        -1.0780068894        3.5306195195      -14.9554924574
 C        -0.0764143705        3.6832010261      -13.7210873676
 O        -0.2656928993        4.5461465823      -12.9081459927
 C         1.1148904139        2.6510654531      -13.6669206850
 C         2.4954365956        3.4559035391      -13.9519473988
 C         2.3538733025        4.6645916509      -14.8875597214
 O         1.2728954624        5.1543118319      -15.0683835701
 C         3.7240187219        5.3201258190      -15.5223296622
 C         4.2175162063        6.0861400929      -14.0755496032
 O         5.2044417047        5.6510831687      -13.5300375897
 C         3.3707480245        7.1964952907      -13.4687837030
 C         3.7223641549        7.3726567754      -11.9848008084
 C         3.2501072824        6.2667963910      -11.0092649721
 O         2.6021140780        5.3035435422      -11.3634721503
 C         3.6412327491        6.4463806990       -9.4563537098
 C         2.3843296988        6.6490044697       -8.5122691634
 O         2.2957792742        6.2358362674       -7.3932334707
 C         1.2854715942        7.6153028487       -8.9483512618
 C         0.0652399535        7.0701273269       -8.3805441659
 C        -1.0958528321        6.6446031042       -9.3326355593
 O        -0.9932351666        6.7272865728      -10.5321340514
 C        -2.4811954770        6.2493409740       -8.7251438392
 C        -2.7870028119        4.8273855344       -9.3580995523
 O        -3.1870163044        4.7816949629      -10.4753933910
 C        -2.5950928346        3.5854828212       -8.5834268682
 C        -2.5493274628        2.3150942392       -9.5006218490
 C        -3.5441265423        1.3393025676       -8.9391163690
 O        -4.3909373152        1.5196467155       -8.0623074113
 C        -3.5011523091       -0.1631561986       -9.5282962926
 C        -2.9755015655       -1.2501827323       -8.4273512427
 O        -1.7939542945       -1.5566699976       -8.4174851998
 C        -4.1520910221       -1.9784981679       -7.6663480716
 C        -3.5788033106       -2.5866285547       -6.3021104365
 C        -3.0703192402       -4.0351602763       -6.5830687197
 O        -3.7187730235       -4.7377357130       -7.3487368685
 C        -1.8919856360       -4.6541287819       -5.8471949087
 C        -0.8235426528       -4.7522102251       -7.0713849661
 O        -1.0638465156       -5.3904810918       -8.0663618736
 C         0.4785890988       -3.9455514439       -7.0640569948
 C         1.5090113290       -4.8582627434       -7.8115050440
 C         1.5922375743       -6.2214726721       -7.1259715562
 O         0.8807375315       -6.4431273810       -6.1685345207
 C         2.5913484915       -7.2247590980       -7.6799151175
 C         2.0515818016       -7.7545055034       -9.0531096871
 O         2.0723624453       -7.0506782773      -10.0551143187
 C         1.5967849251       -9.2204533943       -9.2485450794
 C         0.5633932542       -9.3133609655      -10.3712607047
 C        -0.8218927327       -8.7020762514       -9.9223849367
 O        -0.9664340657       -8.1737329046       -8.8616170589
 C        -2.0896963726       -8.9591650184      -11.0279623222
 C        -3.3455856604       -9.0698840277      -10.1647533342
 O        -4.0324155761       -8.0217487135       -9.9777486498
 C        -3.9069406653      -10.4789828476      -10.0056528501
 C        -4.9617967866      -10.4951794564       -8.9370627345
 C        -4.6037288127       -9.9385836916       -7.4738243234
 O        -3.9665542651       -8.9410141416       -7.2496756224
 C        -5.0472251310      -10.8606613520       -6.2083216670
 C        -6.5031280796      -11.2553105268       -6.4584873094
 O        -6.6265485165      -12.1058010172       -7.2985694166
 C        -7.7130220829      -10.4403074641       -5.8104601307
 C        -9.1252046225      -10.4902302796       -6.5979563265
 C        -9.0655728199       -9.9473617295       -8.0043442614
 O        -8.1085139664       -9.4843294247       -8.5308102535
 C       -10.4264379969      -10.0416659355       -8.8506457879
 C       -11.5508329495       -9.0194879510       -8.3103261827
 O       -11.8560425562       -8.9454347590       -7.1342941603
 C       -12.1726064862       -8.1212256476       -9.2992834914
 C       -13.0048861839       -6.9720803577       -8.6186071544
 C       -13.5738437100       -6.1227863577       -9.7126058370
 O       -12.9134627777       -5.4443698598      -10.4886120190
 C       -15.0807127671       -5.7890771537       -9.6506883474
 C       -15.9355262990       -6.7131950939      -10.6642333408
 O       -15.4737493668       -7.4425475530      -11.5291959320
 C       -17.5413978628       -6.6290585234      -10.4494220446
 C       -15.7387902120       -5.9383350594       -8.2412504353
 C       -15.2472552623       -4.2602552493       -9.9928843711
 C        -9.9177685645       -9.7944653773      -10.3517134551
 C       -11.0738965240      -11.4404958789       -8.5664133155
 C        -4.1070041739      -12.0779006891       -6.2954231502
 C        -4.7944174961      -10.0225563023       -4.9323847836
 C        -2.2257778124       -7.6188936773      -11.8925413863
 C        -1.7573206075      -10.1789996894      -11.9661625826
 C         3.9110580868       -6.5015297879       -7.8849383677
 C         2.7265887039       -8.2893307861       -6.5230461440
 C        -1.4125151614       -3.7993997974       -4.7229010721
 C        -2.2700792734       -6.0566625981       -5.3712636565
 C        -4.8299088283       -0.5958126031      -10.0449455629
 C        -2.4658571494       -0.1816697609      -10.6926213425
 C        -2.4068629911        6.2380946558       -7.1308541240
 C        -3.8022782585        7.0363550338       -9.0025962220
 C         4.3348762857        5.0807615316       -9.1219990316
 C         4.5926723621        7.5570529769       -9.1750183826
 C         4.6735894519        4.1917176011      -15.9152842415
 C         3.1978514033        6.1592812994      -16.6832830998
 C        -2.0302354923        2.1604246432      -14.6916836494
 C        -0.3499647487        3.4316265112      -16.2443162684
 C        -5.5227684604        8.5737407420      -15.3831989616
 C        -3.9391900757        9.7949062020      -13.8219403382
 H        -7.1950072037        8.8340498369      -13.4573628586
 H        -6.7437445665        8.5799228623      -11.7782854397
 H        -7.4352316690        7.3000410616      -12.4327545192
 H        -3.6082707478        7.1761482379      -16.8484217481
 H        -4.3026225508        5.8893737880      -15.8198497233
 H        -1.2290949203        6.1877104337      -16.1483380446
 H        -2.1834426621        4.9982544342      -16.9293511910
 H         1.1035889460        1.7841177601      -14.3697679248
 H         1.0791025607        2.2747779151      -12.6303026535
 H         3.2546815729        2.8357230091      -14.2940828551
 H         2.8466264742        3.9302020917      -13.0121695702
 H         2.2896667247        7.0027080729      -13.6077936852
 H         3.5454037201        8.1095549025      -13.9938837116
 H         3.2626586094        8.3637217381      -11.8074419320
 H         4.8329981398        7.5960616694      -11.7470913703
 H         1.1581361182        7.7389261423      -10.0402548447
 H         1.4835355819        8.5728088715       -8.5252665717
 H        -0.4690464078        7.7515089377       -7.6764769881
 H         0.2516172690        6.2045976832       -7.7216003825
 H        -3.4660062295        3.5657565512       -7.9701548066
 H        -1.7131355451        3.7002273369       -7.9033665951
 H        -1.5855418151        1.8572269947       -9.6474612566
 H        -2.9476543004        2.6508237864      -10.5651455807
 H        -4.6551847272       -2.7931675792       -8.2678090999
 H        -4.8428753969       -1.2654408880       -7.4945467972
 H        -4.2893245213       -2.6541724368       -5.4908985972
 H        -2.8141894596       -1.9379764306       -5.8584820674
 H         0.7880979961       -3.8261189683       -6.0204658699
 H         0.3836492989       -2.8801063065       -7.5243519937
 H         2.4526729274       -4.2908054082       -7.7178462200
 H         1.2363710376       -4.9473422052       -8.8466462747
 H         1.0378416354       -9.5989238107       -8.4137159147
 H         2.4971329573       -9.7133201537       -9.4382662672
 H         0.3772413687      -10.3432372699      -10.7239927985
 H         0.8328286015       -8.8006452197      -11.2833274831
 H        -3.0308470391      -11.1337671038       -9.9215198227
 H        -4.3995023077      -10.6227567649      -10.9964243393
 H        -5.3711608610      -11.4758555512       -8.7805938157
 H        -5.7773514021       -9.7843315417       -9.2768669245
 H        -7.5232061133       -9.3701502283       -5.7879789617
 H        -7.7329240697      -10.6670479044       -4.7191204708
 H        -9.9819000292      -10.0831125833       -5.9409802324
 H        -9.2345600381      -11.5988709751       -6.7362571264
 H       -13.0426259709       -8.6618325769       -9.8348469679
 H       -11.4602332709       -7.6758446918      -10.0369498811
 H       -12.3217025618       -6.3997194044       -7.9215760384
 H       -13.6198224032       -7.4306542683       -7.8647911089
 H       -17.9049749669       -6.1993252546      -11.4026494105
 H       -17.9440329717       -5.9821538776       -9.6549205992
 H       -17.9742581145       -7.6152887195      -10.3485827008
 H       -15.2063870208       -5.2243729854       -7.5361277174
 H       -15.9117776916       -6.9343755042       -7.8900673066
 H       -16.7571476511       -5.6148925559       -8.2935421183
 H       -16.2667322285       -3.9664467270       -9.8863441245
 H       -14.8598186876       -4.1861262698      -11.0127790312
 H       -14.5568295971       -3.7823506132       -9.2397516365
 H       -10.6039406125      -10.1409849793      -11.1173647587
 H        -9.0800380989      -10.3990373161      -10.5520162267
 H        -9.7292759109       -8.7327868793      -10.5454585937
 H       -11.4162430070      -11.5573082544       -7.5833639166
 H       -10.4222852631      -12.2919593096       -8.7737327583
 H       -11.9298092662      -11.4753484378       -9.1564906104
 H        -4.3681179051      -12.6056955167       -5.3915920668
 H        -3.0846995108      -11.7330175498       -6.1253727822
 H        -4.3203408057      -12.6561733495       -7.1513395142
 H        -3.7615377832       -9.6326148636       -5.0163802925
 H        -4.8648706527      -10.7192191575       -4.0446237739
 H        -5.4987468380       -9.2188272736       -4.9035545565
 H        -1.2512742544       -7.3263817560      -12.2470551119
 H        -2.5373999907       -6.8281402940      -11.1674695213
 H        -2.8738280020       -7.8322001475      -12.7515838638
 H        -0.8519437602      -10.1068600883      -12.4436771875
 H        -2.4842452231      -10.1615405438      -12.8114296228
 H        -1.7326551390      -11.1967998364      -11.4938073140
 H         3.7167216009       -5.5990304282       -8.4092324480
 H         4.5025991340       -7.2484165699       -8.4493054179
 H         4.4098753377       -6.2923165613       -6.9845672571
 H         1.8738821411       -8.9568872052       -6.6161431964
 H         2.8298553205       -7.7805038359       -5.6140085284
 H         3.6398252533       -8.7881047079       -6.7496017302
 H        -0.7037798358       -4.3761830101       -4.1449661043
 H        -2.2862274344       -3.6195573363       -4.0986387553
 H        -1.0568783791       -2.7931358884       -4.8814566956
 H        -1.4304726190       -6.6618389431       -5.0861195378
 H        -2.7291853689       -6.7000547084       -6.0725628455
 H        -2.8299977025       -6.0547300023       -4.4289930091
 H        -4.9467543914       -0.2263557381      -11.0258074042
 H        -5.6842966235       -0.1494913334       -9.5003463348
 H        -5.0667744490       -1.6052420052       -9.9851336600
 H        -1.5258438086        0.0806915786      -10.3308112478
 H        -2.7854079395        0.4289087574      -11.5234081887
 H        -2.4199250115       -1.1415283163      -11.1725748387
 H        -1.4117525103        5.9596458414       -6.7180546039
 H        -3.0548143151        5.4711176430       -6.7029102316
 H        -2.6251518809        7.1785630819       -6.6087554094
 H        -4.6904026466        6.6259927211       -8.3862257217
 H        -4.0866055487        6.9641215349      -10.0771424311
 H        -3.8040355903        8.0682681380       -8.6649754217
 H         3.6775892968        4.2796554909       -9.3077133360
 H         4.7651454727        5.0250363621       -8.1022853486
 H         5.1723024970        4.8826025558       -9.7495337138
 H         5.5128191137        7.1841703775       -9.6995392758
 H         4.7673971625        7.5470966637       -8.1522039994
 H         4.3894135120        8.5151105007       -9.6850501916
 H         5.6425032677        4.6158073109      -16.3051690315
 H         4.2360583053        3.5743383289      -16.6506125059
 H         4.8851014207        3.5129847222      -15.0794484083
 H         2.5798321804        5.5759876383      -17.2937139127
 H         3.9515614875        6.6894620772      -17.2785063340
 H         2.6195871267        6.9250804117      -16.2471967971
 H        -2.5266232903        2.1921925452      -13.6991209510
 H        -1.3844266863        1.2799734624      -14.7139500589
 H        -2.6779043827        2.1436176366      -15.6298649774
 H         0.5309819817        2.7994239327      -16.0626857138
 H         0.0157915381        4.3930086991      -16.5851442724
 H        -0.8870677706        2.9235315442      -17.0204977431
 H        -5.9841911713        7.6535384487      -15.7557886440
 H        -4.8834063796        8.8869410782      -16.1736302684
 H        -6.3242749187        9.2348354764      -15.1888110322
 H        -3.2777736486        9.5476819261      -13.0284475030
 H        -4.7768839920       10.5122288979      -13.5795939757
 H        -3.3357924387       10.1214497106      -14.6144910006
 Na       -2.3875582735        6.0772992591      -12.3230993774
 Na       -3.0889063145       -6.8056687797       -8.3927789373
