232

 C        -5.7127246915        9.7571966276      -13.8708244574
 C        -4.6774287274        8.6986908059      -13.9908082900
 O        -4.4936244475        7.8918449661      -13.1160097238
 C        -3.6602789699        8.9196301386      -15.3130903243
 C        -2.6980526181        7.7070638243      -15.3848033799
 O        -1.8603929469        7.5424944529      -14.4869213811
 C        -2.7369814466        6.8123046768      -16.5551597315
 C        -2.1257855540        5.4280140672      -16.4953882011
 C        -2.4036784598        4.7783893239      -15.1280065546
 O        -3.2947870926        5.0648196081      -14.3497796374
 C        -1.6689378290        3.5468019827      -14.6266493727
 C        -0.4495312852        4.1326046159      -13.8483392031
 O        -0.5285761415        5.0382581979      -13.0801704892
 C         0.9037731347        3.4293217896      -14.0066990059
 C         2.0887843948        4.3468789302      -13.7632385549
 C         2.6818793131        4.6833837925      -15.1072948645
 O         1.9551249794        4.6282155935      -16.0991657751
 C         4.1504894561        4.9945379715      -15.3438396520
 C         4.9447810303        5.1804584768      -13.9107731300
 O         5.2460158027        4.1654044243      -13.3508680680
 C         5.3141868836        6.5975143056      -13.4854975825
 C         5.4939656537        6.7050213992      -11.9148530792
 C         4.0030665039        6.5433104780      -11.2830042253
 O         3.0575860743        6.7286331688      -12.0425842020
 C         3.8645506087        6.8882249111       -9.7382221731
 C         2.4940413568        6.3098782495       -9.3915612749
 O         2.3285897070        5.1098614235       -9.1111820041
 C         1.2587490617        7.1313794882       -9.8313903939
 C         0.0971592308        6.9353904949       -8.8510097253
 C        -1.3359024238        6.8801111543       -9.5188320939
 O        -1.4409922528        7.2479958069      -10.6900038730
 C        -2.4520583079        6.1938330785       -8.7384608005
 C        -2.4656009925        4.8335272303       -9.4977141881
 O        -2.6191242056        4.7442938596      -10.7179917875
 C        -2.5936961992        3.5724216614       -8.6789729623
 C        -3.2079308857        2.3710163682       -9.3190418047
 C        -3.1452451877        1.1395535443       -8.3317016339
 O        -2.4481016333        1.1143686742       -7.3068997555
 C        -3.7993456772       -0.2191397658       -8.8788093838
 C        -3.6254579810       -1.3947323274       -7.9137049166
 O        -2.5100814723       -1.9305432659       -7.9317230047
 C        -4.8409677358       -1.8470552690       -6.9333294275
 C        -4.2965582382       -2.7030156214       -5.8324216348
 C        -3.4752194015       -3.8750370819       -6.4533072947
 O        -4.0186004413       -4.6602513063       -7.1804059953
 C        -2.1088355615       -4.2656171369       -5.6757861406
 C        -1.1931867632       -4.7665573305       -6.8071974165
 O        -1.4608890826       -5.7316474998       -7.5184283668
 C         0.1295798720       -4.0240104801       -6.9900298686
 C         1.0366633589       -4.6080691487       -8.0293998474
 C         2.0033644225       -5.7080026335       -7.5154810772
 O         2.2280563022       -5.9420582613       -6.3887522707
 C         2.6229835124       -6.7088755149       -8.5628875791
 C         1.4298337092       -7.5672427707       -9.1764113693
 O         0.8687157446       -7.1961319246      -10.1892034162
 C         0.9159849230       -8.8348341529       -8.4330702248
 C        -0.1907635283       -9.5569610656       -9.3703691192
 C        -1.5219793016       -8.8153829875       -9.2203985751
 O        -1.9818885846       -8.5658426142       -8.0641544120
 C        -2.4256559521       -8.5681885906      -10.4462243231
 C        -3.9320595439       -8.5593285474       -9.9768079913
 O        -4.5571713707       -7.5169552971       -9.9710322233
 C        -4.7610271593       -9.8327792024       -9.6633781387
 C        -5.9483218912       -9.6260619232       -8.6604957969
 C        -5.4539048955       -9.7557114631       -7.2021649453
 O        -4.7968736165       -8.8601588737       -6.6770291211
 C        -5.6497831609      -11.0413495497       -6.3412897275
 C        -6.8643295930      -11.9642374925       -6.8477847299
 O        -6.7380750948      -13.1121182153       -7.3050948857
 C        -8.2069876136      -11.3388573971       -6.5276509067
 C        -9.2624090194      -12.0842139375       -7.3585866793
 C        -9.3068962953      -11.4411163311       -8.7505876848
 O        -8.3147211568      -11.5070320705       -9.4132107547
 C       -10.6857730488      -10.6996289904       -9.4106183731
 C       -10.9383218498       -9.3987668122       -8.5081547898
 O       -10.2608146253       -9.2872639730       -7.4763081291
 C       -11.9720285650       -8.5292271062       -9.1217029026
 C       -12.2958594468       -7.2490257530       -8.3253923292
 C       -13.1445560082       -6.2068195068       -9.1541686662
 O       -12.6013460722       -5.5712145101       -9.9950540681
 C       -14.6151966036       -5.9101856873       -8.7468197912
 C       -15.5105597106       -7.1646289518       -9.0015699504
 O       -15.1317584710       -8.2495538580       -8.5968795290
 C       -16.9944280630       -7.0848983476       -9.4361170752
 C       -14.8282322677       -5.6155769090       -7.2623419833
 C       -15.2698069639       -4.7467082381       -9.6436557299
 C       -10.4481319613      -10.2266803527      -10.8845097666
 C       -11.7742606954      -11.7772547638       -9.3971343415
 C        -4.3203474599      -11.8827513348       -6.4507996660
 C        -5.9710394399      -10.5604200533       -4.9281135045
 C        -2.1219020894       -7.1277946461      -10.9091924019
 C        -2.2300713320       -9.6473098270      -11.5360664624
 C         3.3406022326       -5.9105832938       -9.6505291004
 C         3.5560423000       -7.6057780859       -7.8883841715
 C        -1.4919219169       -3.0401673538       -4.8921213635
 C        -2.5623130538       -5.5022311753       -4.6722422264
 C        -5.2675156440       -0.0408019299       -9.4329169413
 C        -2.7796866977       -0.6110385019      -10.0742660567
 C        -2.0709017963        6.3179805571       -7.2694990364
 C        -3.8417679800        6.8022300374       -8.8798516790
 C         4.9281285206        6.2195618714       -8.6775438305
 C         3.9661721539        8.4082465119       -9.4770056520
 C         4.6131516479        3.7468061972      -16.1528043695
 C         4.1329529729        6.2053418695      -16.2542806534
 C        -2.3757346219        2.6911732723      -13.5388452746
 C        -1.3226975416        2.5207049069      -15.6676460280
 C        -4.5668385739        9.1297110098      -16.4859218686
 C        -2.8877341980       10.2027924440      -14.9190465593
 H        -5.5506708765       10.3282107761      -12.9356571736
 H        -6.6846357708        9.2458853808      -13.6861264522
 H        -5.7070124749       10.4660460362      -14.7009474910
 H        -2.4185713807        7.4281980296      -17.3877666958
 H        -3.8323181054        6.7431394186      -16.6947869371
 H        -1.0178531617        5.5487599101      -16.5675606702
 H        -2.5002042272        4.8844739165      -17.3385978432
 H         1.0208162290        3.1090497589      -15.0332174004
 H         0.8243754698        2.6306274335      -13.2810351662
 H         2.9401771007        3.9073716421      -13.1367092229
 H         1.8568587666        5.2801630478      -13.2437994507
 H         4.5635144601        7.3028924371      -13.8725221495
 H         6.2476823547        6.7784110121      -14.0907949861
 H         5.8020475179        7.6586964471      -11.4820510188
 H         6.1842050923        5.9718929954      -11.5914197737
 H         1.0636187031        6.6589830832      -10.8164295293
 H         1.5351737859        8.2045279991      -10.0556665760
 H         0.0191100079        7.6364888189       -8.0568990995
 H         0.2362839609        5.9358233748       -8.4220287518
 H        -3.2252897481        3.7330011828       -7.7982952265
 H        -1.7005007560        3.1594803065       -8.3159372912
 H        -2.7022642703        2.0403574126      -10.2135619689
 H        -4.2266835193        2.5289591202       -9.5894751488
 H        -5.5539357441       -2.4365895702       -7.5703515595
 H        -5.3990242799       -0.9914356321       -6.5358136592
 H        -5.1267483800       -3.1868609734       -5.2748984808
 H        -3.6347343364       -2.1601818760       -5.1983784581
 H         0.5908247145       -4.1479352921       -5.9760387862
 H        -0.0939834978       -2.9935747959       -7.1064786822
 H         1.6191803096       -3.9024727542       -8.5864932304
 H         0.4362474468       -5.0305223854       -8.8638514451
 H         0.6053224014       -8.4925699257       -7.5094825671
 H         1.6618137873       -9.5180088042       -8.1078791625
 H        -0.4610366309      -10.5152874414       -8.9416494274
 H         0.1104790844       -9.5797700618      -10.4490164309
 H        -4.1215562937      -10.7137170880       -9.3750019164
 H        -5.2171615085      -10.0619993214      -10.6755916517
 H        -6.7768831650      -10.3298415998       -8.8750061414
 H        -6.2665686474       -8.6237352316       -8.9939851421
 H        -8.0832132089      -10.2613608477       -6.7341198663
 H        -8.3700082707      -11.3840469691       -5.4603305548
 H       -10.1399610735      -11.9902919458       -6.8215253861
 H        -9.0450390003      -13.1227417956       -7.4607113530
 H       -12.9028961407       -8.9935285131       -9.2295099914
 H       -11.7393897817       -8.2912103010      -10.1470022221
 H       -11.3384294537       -6.8373855523       -8.1411975385
 H       -12.7247575192       -7.4617533884       -7.3351562456
 H       -17.2153682881       -6.9141976138      -10.4708399503
 H       -17.5699417653       -6.4225918003       -8.7750147972
 H       -17.3232665281       -8.0522308390       -9.0122874106
 H       -14.2099017878       -4.8476975320       -6.8378537572
 H       -14.7648546479       -6.5926589579       -6.7552443401
 H       -15.8819518825       -5.2772915892       -7.0087303321
 H       -16.1011772820       -4.2492038073       -9.2450895076
 H       -15.5076858335       -5.0874615031      -10.6834821190
 H       -14.4013010096       -4.0694221282       -9.7865261273
 H       -11.3294323371       -9.5745656537      -11.2866144496
 H       -10.2905805614      -11.1000789209      -11.4867388154
 H        -9.5219248401       -9.6134792434      -10.8836404465
 H       -12.0528415583      -12.0168806289       -8.3745166908
 H       -11.4562743539      -12.6769163195       -9.9952952009
 H       -12.5839451282      -11.2762301952       -9.7825756852
 H        -3.7444660356      -11.8344219669       -7.3305749761
 H        -4.7067948345      -12.8865392076       -6.4131301605
 H        -3.6317869594      -11.6666117798       -5.7201860439
 H        -5.1348434617      -10.0217188959       -4.4147121640
 H        -6.0894193642      -11.4572709247       -4.3204778882
 H        -6.8541133668       -9.9342971044       -4.8603187294
 H        -1.2286700650       -7.2075889586      -11.4592888448
 H        -1.8641512140       -6.4536627896      -10.1054984980
 H        -2.8233215237       -6.8391992569      -11.6722993203
 H        -1.2490671954       -9.5992452801      -11.8886621500
 H        -2.9788418476       -9.4444187784      -12.3758502791
 H        -2.2336978288      -10.6462574893      -11.1152308132
 H         2.7893771387       -5.5115026565      -10.4868796489
 H         4.1377730690       -6.4298728057      -10.1172745832
 H         3.8127222609       -5.0591656434       -9.2121974070
 H         3.3435665634       -7.8247086090       -6.8297430196
 H         4.5423518612       -7.1369987311       -7.9187988482
 H         3.7268006887       -8.5454732461       -8.3069325101
 H        -0.5944016454       -3.3830172708       -4.3141363781
 H        -2.2091721234       -2.6475190784       -4.2256141696
 H        -1.2845722574       -2.2704101517       -5.6098606202
 H        -1.6274192697       -5.8838239459       -4.2732383395
 H        -2.9824138217       -6.3183137827       -5.2149846146
 H        -2.9819473085       -5.2005657293       -3.7080944724
 H        -5.2352702848        0.2831841490      -10.4509689962
 H        -5.9410403219        0.6697987302       -8.8373553452
 H        -5.6127832391       -1.0379161315       -9.3426725211
 H        -1.8196411284       -0.3730181067       -9.8001010897
 H        -2.9903131338       -0.1888039792      -11.0330393634
 H        -2.7810111721       -1.6749293115      -10.2670939593
 H        -1.3235868271        5.5097715669       -6.9851875305
 H        -2.8881250506        6.0658060188       -6.5815537809
 H        -1.7711867800        7.3208754551       -7.0416537742
 H        -4.6789105982        6.2143745287       -8.4237301693
 H        -3.9593155702        6.6570086288       -9.9528112773
 H        -3.9998669702        7.8125499611       -8.4627665589
 H         5.8992821467        5.8727632446       -9.0674402711
 H         4.3462643027        5.4297117899       -8.1547048450
 H         5.0628358780        6.9763174933       -7.9789817502
 H         5.0382509429        8.6965998136       -9.4760323844
 H         3.5602432949        8.5393613016       -8.5662350751
 H         3.5531282107        8.8518596331      -10.3568131037
 H         5.6504045605        3.8276587784      -16.3955749644
 H         3.9991234637        3.7020881611      -17.0972938738
 H         4.3261584555        2.8320629039      -15.6170412859
 H         3.3904867321        6.1662523104      -16.9558598427
 H         5.0175554573        6.1533389730      -16.8537367279
 H         4.1034355835        7.1249367237      -15.7747965116
 H        -2.5437493022        3.2849548632      -12.6807975005
 H        -1.8123764530        1.7567410454      -13.3265212010
 H        -3.3154640676        2.3659323044      -14.0804860761
 H        -0.9011800666        1.6641707096      -15.1993946293
 H        -0.6536171856        2.8935526438      -16.4682647964
 H        -2.2255163379        2.1802508829      -16.0716561956
 H        -5.3329168668        8.3368926075      -16.4537705230
 H        -4.1746312591        8.8793162859      -17.4264111086
 H        -5.0249146823       10.0826468473      -16.5425915828
 H        -2.1937614042       10.0793022581      -14.0993034869
 H        -3.7206178746       10.9364773597      -14.7568302591
 H        -2.3554342182       10.4224880810      -15.8679074095
 Na       -2.4423334188        6.3865450142      -12.4099225318
 Na       -3.3965001835       -6.9928743575       -7.4882283632
