232

 C        -5.7640186701        9.6141198560      -13.7312875182
 C        -4.4385139065        8.7886901441      -14.0164818387
 O        -4.0693008639        8.0045411663      -13.1474239245
 C        -3.4981436257        9.0297418838      -15.2476928398
 C        -2.5652586359        7.8228265002      -15.2837824409
 O        -1.6733572758        7.7060981109      -14.5006972247
 C        -2.6028854621        6.7264443506      -16.4351720399
 C        -1.7861861508        5.4439390313      -16.1621436052
 C        -2.5370236605        4.6216978439      -15.0805274420
 O        -3.4824830925        5.1110169957      -14.4461244497
 C        -1.8168603736        3.3757770138      -14.5546888904
 C        -0.4759049131        3.9590552490      -13.7934341552
 O        -0.6396955835        5.0926205751      -13.3745632880
 C         0.9442359519        3.3374560405      -13.7890478826
 C         2.0966386625        4.4194757999      -13.8682595796
 C         2.6757882259        4.6554711388      -15.2992027104
 O         1.9273915163        4.4492676000      -16.2558222150
 C         4.3038399074        5.0333427112      -15.4424535226
 C         4.9312848284        5.0198876189      -14.0547844438
 O         5.1588548975        4.0107466468      -13.3488441332
 C         5.4155042862        6.3998801173      -13.4667956363
 C         5.3722172372        6.2792036084      -11.9930286276
 C         4.1039498901        6.8362984716      -11.3936511498
 O         3.1230322349        7.2120512884      -12.0025828570
 C         3.9057335102        7.0206286545       -9.8368164936
 C         2.5845349776        6.2706400651       -9.4662749168
 O         2.4886552686        5.1426997034       -9.0870506498
 C         1.2005631231        7.0141449434       -9.8385641433
 C         0.0914952322        6.4675385138       -9.0516020426
 C        -1.3102411729        6.8916040086       -9.5800147223
 O        -1.4221481171        7.5068482927      -10.6189596348
 C        -2.5659867914        6.2920277948       -8.8318965357
 C        -2.7172826914        4.7697597181       -9.3275013586
 O        -2.9502569047        4.5320987402      -10.5013348022
 C        -2.4817608183        3.6300934505       -8.3858763039
 C        -3.1524377647        2.4170426412       -9.1974393906
 C        -3.0590862910        1.0660336861       -8.3929663737
 O        -2.4674172758        0.8975112510       -7.3641660754
 C        -3.6076409405       -0.2662342702       -9.0678831336
 C        -3.4797858210       -1.5386935263       -7.9597521214
 O        -2.4954334160       -2.2288772302       -7.8189277626
 C        -4.7652273597       -1.6901441509       -7.0331903997
 C        -4.2875656256       -2.4849480050       -5.8003293673
 C        -3.5242422348       -3.7685391944       -6.3463478200
 O        -4.1797799945       -4.6149105128       -6.9441544421
 C        -2.1301834339       -4.2471303471       -5.5321387848
 C        -1.1883332012       -4.7216848722       -6.7624971599
 O        -1.3491679232       -5.7022910335       -7.4653091137
 C         0.2129869345       -3.9187538224       -6.9489697038
 C         1.0835240722       -4.5505801293       -8.0743782207
 C         1.9703176355       -5.6852386360       -7.5301170410
 O         2.1578576120       -5.8101457757       -6.3248204864
 C         2.5298485937       -6.6628888009       -8.5848958475
 C         1.3981431323       -7.4870186532       -9.2846989574
 O         0.9175451636       -7.0967761815      -10.3310759782
 C         0.8201440586       -8.6330784872       -8.5140931890
 C        -0.2162836294       -9.3946604927       -9.2374632564
 C        -1.6329481083       -8.7302258847       -9.1073318984
 O        -1.9785076045       -8.4918649525       -8.0073004398
 C        -2.5133048027       -8.5968700126      -10.4097906290
 C        -4.0235366862       -8.4983979826       -9.9341375043
 O        -4.6559648333       -7.4499435845       -9.9054452191
 C        -4.6520402377       -9.7868434891       -9.6967662066
 C        -5.8780200757       -9.6629920042       -8.7331364201
 C        -5.4915979423       -9.6786940522       -7.2713055140
 O        -4.7978579649       -8.8107068098       -6.7674322922
 C        -5.8425870676      -10.9376480729       -6.3925098844
 C        -7.0648520478      -11.8853121688       -6.8667097135
 O        -6.8992774780      -12.8502829077       -7.5238189003
 C        -8.5894999629      -11.6275101365       -6.4121838303
 C        -9.6036189990      -12.1094693417       -7.4693738992
 C        -9.4182757952      -11.4482465890       -8.8285901151
 O        -8.3345996280      -11.4787793906       -9.4366723409
 C       -10.6647680013      -10.7283382572       -9.4286050525
 C       -10.8842530999       -9.4353744653       -8.4676367438
 O       -10.1428426606       -9.1863451200       -7.5318750557
 C       -11.9245739696       -8.4914931477       -8.9784197829
 C       -12.1606048049       -7.3011115992       -8.1025331812
 C       -13.0923431936       -6.3942424041       -8.9790811114
 O       -12.6701095976       -6.0311532491      -10.0922992831
 C       -14.5186622180       -6.0488359078       -8.6212763992
 C       -15.4444919982       -7.3199404900       -8.7908532619
 O       -15.1371990348       -8.4454915444       -8.4908491398
 C       -16.8646598645       -7.1252119570       -9.2797636426
 C       -14.6473388242       -5.5740219449       -7.1472851290
 C       -14.9552301802       -4.8296314248       -9.4624262261
 C       -10.2677566930      -10.3925594018      -10.8520457668
 C       -11.9595870053      -11.7655215164       -9.3283408200
 C        -4.6868638639      -11.9620005477       -6.4899048671
 C        -5.8938940342      -10.6334547231       -4.8803150701
 C        -2.1589246723       -7.2772116104      -11.0581726712
 C        -2.2378858219       -9.7069312084      -11.5134531145
 C         3.1997886770       -5.8482153373       -9.7370513630
 C         3.5821352927       -7.6233190003       -7.9325853465
 C        -1.5841497013       -3.0939507479       -4.6432245752
 C        -2.4517225745       -5.5301016858       -4.6396262777
 C        -5.2010130322       -0.0744497602       -9.2664948448
 C        -2.9801671750       -0.5744033369      -10.4619313048
 C        -2.4393948256        6.3333792274       -7.2136521199
 C        -3.8928031093        7.0655159891       -9.3040658342
 C         4.9849128807        6.2901442614       -9.0068991732
 C         3.8552621553        8.5947512112       -9.5490930888
 C         4.8340811923        3.7797771076      -16.1848969554
 C         4.3971264508        6.3865346509      -16.2902774564
 C        -2.5988544339        2.6128929896      -13.4651618569
 C        -1.2813443095        2.5061757863      -15.7265761634
 C        -4.3209082332        9.1675729042      -16.4969959923
 C        -2.6172243392       10.3258698316      -15.0745165690
 H        -5.4718821392       10.4008870001      -13.0279516630
 H        -6.6133727782        9.0787265775      -13.2639149731
 H        -6.1074009822       10.1658855214      -14.6182260988
 H        -2.1152070647        7.3679351692      -17.1907867381
 H        -3.5845496326        6.5027690045      -16.7987914039
 H        -0.7495619109        5.6682596315      -15.9697484522
 H        -1.9101687426        4.8572983698      -17.0938507317
 H         1.0272607658        2.6175241906      -14.6132885930
 H         0.9071788780        2.8540336881      -12.7967229041
 H         2.8962408601        4.1741216574      -13.2455120842
 H         1.7328658901        5.3830521424      -13.4619271510
 H         4.7195851528        7.1942708359      -13.7090480421
 H         6.3722543655        6.7653937298      -13.7272335842
 H         6.2172163245        6.8189780117      -11.5312973684
 H         5.4948359268        5.2574633404      -11.5114625433
 H         1.1176751724        6.8848759589      -10.9145692622
 H         1.2077317887        8.0673406400       -9.7495562849
 H         0.1352350556        6.8749260378       -7.9769158238
 H         0.1063049847        5.3570736348       -9.0283817260
 H        -2.9590242975        3.7754691641       -7.4406026344
 H        -1.3967466171        3.2765408998       -8.2167491715
 H        -2.6690340950        2.2838907363      -10.1797395900
 H        -4.2519252603        2.5391470369       -9.4206694051
 H        -5.5656406189       -2.1030017252       -7.5865219780
 H        -5.0607806412       -0.6370519828       -6.7266293052
 H        -5.1285639642       -2.9877407161       -5.3232061894
 H        -3.7392978847       -1.9194142931       -5.0215166546
 H         0.7554596599       -4.0377321552       -5.9991817183
 H         0.0987605554       -2.7728031626       -7.0914738353
 H         1.6575150267       -3.7781682924       -8.6412602962
 H         0.4801643138       -5.0208857860       -8.8539351400
 H         0.4585100321       -8.2820174907       -7.4781718169
 H         1.5896719723       -9.3631994560       -8.0720208339
 H        -0.3651669549      -10.2678190109       -8.5991704144
 H         0.0303586803       -9.5632457494      -10.2385716678
 H        -4.0741106518      -10.6233557480       -9.2566117100
 H        -5.0520505012      -10.1678290609      -10.6397948062
 H        -6.6113381914      -10.4816027989       -9.0052534912
 H        -6.3743900054       -8.6731957740       -8.9228363549
 H        -8.5509510256      -10.5623590197       -6.1634808255
 H        -8.7559181579      -12.1216655330       -5.4245636951
 H       -10.6314869925      -11.9043213388       -6.9805704644
 H        -9.5427767409      -13.2195574926       -7.5825964726
 H       -13.0067081522       -8.9644309857       -8.9537824192
 H       -11.8633905728       -8.1661659033      -10.0518146389
 H       -11.2099012180       -6.7215514464       -7.8617199586
 H       -12.6411924534       -7.4646450084       -7.1235440701
 H       -16.9179025418       -6.1745479640       -9.8398491876
 H       -17.5596381793       -7.1438762870       -8.4596941469
 H       -17.1441123826       -8.0106683688       -9.8323445996
 H       -14.0658453048       -4.6489325747       -6.9918103098
 H       -14.3601140608       -6.3801206590       -6.4575266456
 H       -15.5931726562       -5.1698070827       -6.8916956871
 H       -15.9521302058       -4.5327071876       -9.0821167264
 H       -15.0717770338       -5.1239284801      -10.5235876636
 H       -14.2569103318       -4.0399187098       -9.5627374705
 H       -11.1237229562      -10.5384031663      -11.4230362034
 H        -9.4055985453      -11.0652327515      -11.0849525593
 H        -9.9640618602       -9.3774785595      -11.0138077700
 H       -12.2960727380      -12.0258119455       -8.3002105618
 H       -11.5402805965      -12.5775910733       -9.8649939248
 H       -12.8789343364      -11.3210258575       -9.8682297542
 H        -4.6067191973      -12.4554768910       -7.4792115466
 H        -4.7971585025      -12.8074459208       -5.8383721449
 H        -3.7192788000      -11.3817592959       -6.3745198295
 H        -5.0104946413      -10.1536141534       -4.5884922119
 H        -6.0303729827      -11.4914721474       -4.2623428236
 H        -6.6601396153       -9.8854059745       -4.5959648426
 H        -1.1035711447       -7.2261371563      -11.4443352327
 H        -2.1541980583       -6.5488644684      -10.2621574990
 H        -2.7603706457       -7.0413666393      -11.9336115422
 H        -1.1029985743       -9.7929916151      -11.7020341166
 H        -2.7764127628       -9.4425326347      -12.3574576666
 H        -2.4917901870      -10.7079525449      -11.1783888567
 H         2.6009536968       -5.6102887984      -10.6358029116
 H         3.9778725562       -6.4346622805      -10.2591389349
 H         3.6770017431       -4.8909390586       -9.4192064826
 H         3.1350054762       -8.2060047767       -7.1348819636
 H         4.4972030856       -7.1665897343       -7.5288457719
 H         4.0189503584       -8.4411379094       -8.6010213857
 H        -0.6339100919       -3.3901405700       -4.3527178501
 H        -2.1274357234       -2.8894054540       -3.7032882470
 H        -1.5408364279       -2.2441079129       -5.3103110325
 H        -1.7557277057       -5.5914597220       -3.7599673910
 H        -2.4471120629       -6.4543968553       -5.2734116724
 H        -3.3609595090       -5.3928837945       -4.0824809765
 H        -5.3318549265        0.8082076591       -9.9366268264
 H        -5.5959045161        0.1731871243       -8.3004494040
 H        -5.6853893665       -1.0050118844       -9.6691163693
 H        -1.8628407067       -0.8378573857      -10.3915799371
 H        -3.0112889670        0.2437085830      -11.2022170498
 H        -3.4726157601       -1.4621093304      -10.8485291754
 H        -1.6731241559        5.6683756670       -6.9543259379
 H        -3.3214842363        6.1270861652       -6.5977561372
 H        -2.2511219119        7.3794694216       -6.8941946270
 H        -4.7500521647        6.7415906065       -8.7915190181
 H        -4.0556546577        7.0165571089      -10.3673061590
 H        -3.7283749226        8.0647587885       -8.9089399225
 H         4.8920711653        5.2525635864       -9.3442229923
 H         4.7239707703        6.3024654593       -7.9610144170
 H         6.0269840124        6.7393527644       -9.2461311019
 H         4.8342135499        9.0273168510       -9.4919084597
 H         3.2886880722        8.6361633885       -8.5367245545
 H         3.2718611967        8.9134747681      -10.4214036194
 H         5.9426224550        3.8282261611      -16.1195049498
 H         4.5307954925        3.7632928155      -17.2249552371
 H         4.4663202665        2.8676893161      -15.6917927115
 H         4.7310443122        6.0917103442      -17.3466853235
 H         5.1678132816        7.1029667115      -15.9808549457
 H         3.4038056392        6.9206163187      -16.3648494918
 H        -2.8503665606        3.2577346143      -12.5993725987
 H        -1.9385241584        1.8189914241      -13.1833709975
 H        -3.4544992808        2.2134337470      -13.8948454113
 H        -0.7810137768        1.6136641633      -15.3451219175
 H        -0.6470975170        3.0778071437      -16.3780693145
 H        -2.1760897459        2.1542357566      -16.3176440867
 H        -5.3042129613        8.7404655057      -16.4572677668
 H        -3.8681113512        8.7464288395      -17.4430427628
 H        -4.3675375692       10.2647553316      -16.7208802649
 H        -2.0865602333       10.0686287121      -14.1279461734
 H        -3.3156949670       11.1000450093      -14.9298144703
 H        -1.8795723988       10.4428989200      -15.8746528509
 Na       -2.5548701217        6.3122173382      -12.6016339446
 Na       -3.5545506624       -6.8312502161       -7.4674265616
