232

 C        -5.4035208956        9.6152661920      -13.9000432027
 C        -4.0693156855        8.9432018348      -13.9084634621
 O        -3.7705283619        8.2328530180      -12.9597666424
 C        -3.2672521275        9.0701389757      -15.2136196546
 C        -2.2608221389        7.8324909109      -15.2197562680
 O        -1.3786818268        7.6930340290      -14.3925886445
 C        -2.5389636955        6.7399880047      -16.4656729358
 C        -1.7817887789        5.4201955751      -16.1862847604
 C        -2.5241346761        4.6351523814      -15.0670302665
 O        -3.6395785945        4.9839325905      -14.7589837989
 C        -1.6214668601        3.4562109880      -14.3673290327
 C        -0.4311191087        4.0586767503      -13.7971001170
 O        -0.5467272786        4.9339909277      -12.9251743538
 C         0.9061361100        3.4027070321      -13.9848438577
 C         2.2148645871        4.1561454194      -14.0134953978
 C         2.7725776177        4.4309549172      -15.4280018939
 O         1.9696779468        4.4715303168      -16.3579068501
 C         4.2287462229        4.7499901263      -15.6313684974
 C         5.0920916044        4.8013452892      -14.1771809935
 O         4.9471798353        3.7899566056      -13.4940286199
 C         5.6138305448        6.1713912715      -13.6261337592
 C         5.3622631333        6.2097542200      -12.0481799514
 C         4.1857120761        7.0726091888      -11.4747192005
 O         3.4409485070        7.7582768124      -12.1311988557
 C         3.9281288635        7.1099298427       -9.7691578302
 C         2.5890912508        6.3488109734       -9.4634728695
 O         2.6906716028        5.2674454218       -8.9774294737
 C         1.1433706400        6.9409571170       -9.8043925706
 C         0.0274414524        6.1267794065       -9.1951844309
 C        -1.3716344294        6.7705814637       -9.6095651161
 O        -1.3961879857        7.3778319458      -10.6205839335
 C        -2.7843211448        6.2748144928       -9.0222687099
 C        -2.9997134377        4.8480551731       -9.5770139470
 O        -3.2094246073        4.7228930293      -10.7816342814
 C        -2.7297661699        3.6076073385       -8.6046099280
 C        -3.2030011578        2.2828951873       -9.1835374751
 C        -3.0198934454        0.9005063036       -8.3553120858
 O        -2.3928462444        0.8335176398       -7.3499955060
 C        -3.7146990562       -0.3461895218       -9.0684129078
 C        -3.5275820271       -1.5329496540       -8.1008597279
 O        -2.6019449482       -2.2841329581       -8.1742784923
 C        -4.5180031424       -1.7160804387       -7.0249391548
 C        -4.0023253902       -2.3520282844       -5.7557864849
 C        -3.4769323970       -3.8735788117       -5.8915516393
 O        -4.1792724939       -4.5723387601       -6.6378648318
 C        -2.0990365279       -4.3487150697       -5.3689875592
 C        -1.2902145698       -4.6666677154       -6.6725639829
 O        -1.6642777641       -5.5547225272       -7.3809992563
 C        -0.0070664141       -3.8735540543       -6.9224264535
 C         0.9537803658       -4.4077051561       -8.0260205033
 C         1.8138094127       -5.5803755440       -7.5112417708
 O         1.9185061917       -5.8229491947       -6.2997975174
 C         2.5180120302       -6.4642087303       -8.6207754048
 C         1.4144383016       -7.4178071722       -9.3084881864
 O         1.0121399926       -7.0622698689      -10.3960300575
 C         0.8616392573       -8.5968828162       -8.5519153705
 C        -0.2123670974       -9.3000681285       -9.3524976077
 C        -1.6283100784       -8.7637948170       -9.1080722175
 O        -2.0818075448       -8.2909573665       -8.1431580774
 C        -2.6002749281       -8.6547702277      -10.4749855289
 C        -4.0193314200       -8.5371726123       -9.8296418320
 O        -4.4810242740       -7.4483148965       -9.4994169309
 C        -4.7426075147       -9.8564440020       -9.6755853120
 C        -6.0475201340       -9.7172592596       -8.7625891855
 C        -5.7030928522       -9.6893980940       -7.2896440942
 O        -5.2112723653       -8.7224338164       -6.7625374916
 C        -5.8781544561      -11.0163512605       -6.3578053220
 C        -7.0726660751      -11.8995013770       -6.9278844767
 O        -6.8559888239      -12.7713983804       -7.6951063181
 C        -8.5090373826      -11.4715154245       -6.3789431864
 C        -9.5544919595      -12.1454410069       -7.3211899278
 C        -9.5064697320      -11.5799922173       -8.8218356254
 O        -8.4435037070      -11.6254779288       -9.4657502256
 C       -10.6987788645      -10.9261117354       -9.4019201990
 C       -10.8941349098       -9.5983838406       -8.5469256123
 O        -9.9543013834       -9.2604529871       -7.8769302899
 C       -12.1563216078       -8.7888954379       -8.8986854275
 C       -12.2680677116       -7.3787282531       -8.0574887206
 C       -13.1375786435       -6.4620967324       -8.9195592727
 O       -12.8198497202       -6.1558033601      -10.0861614952
 C       -14.5051942164       -5.9286573505       -8.3987764923
 C       -15.3777798953       -7.3044780586       -8.6556924580
 O       -14.8671668400       -8.3002497426       -8.1873895437
 C       -16.8228409390       -7.3853866611       -9.0741567836
 C       -14.4082693474       -5.6404528301       -6.8767094009
 C       -14.8730636769       -4.7070170473       -9.2229973693
 C       -10.2968599558      -10.4181006543      -10.8469995331
 C       -12.0241766438      -11.7708597570       -9.3187489120
 C        -4.5635524228      -11.8552264747       -6.3738368710
 C        -6.1318671608      -10.5711369278       -4.8539180092
 C        -2.2528146728       -7.3012359925      -11.1807334824
 C        -2.3500324875       -9.7273044892      -11.5033991946
 C         3.1640360329       -5.6704923165       -9.7761017725
 C         3.6648985466       -7.2517534927       -7.8896059513
 C        -1.3984594406       -3.2935963513       -4.4749704475
 C        -2.3070140472       -5.5523053595       -4.5915623030
 C        -5.1749257036        0.0372820293       -9.4458567057
 C        -2.8871365007       -0.6877042552      -10.3384927189
 C        -2.8127306319        6.3913399059       -7.4686588610
 C        -3.9276539312        7.1607937085       -9.6252761268
 C         5.0394329991        6.5048676571       -8.9189200249
 C         3.7289245384        8.7308895538       -9.5047106902
 C         4.9388244852        3.6868810528      -16.5154446770
 C         4.1974115056        6.1505200604      -16.4359760783
 C        -2.4893615752        2.5621897442      -13.3434058850
 C        -1.2437098787        2.5731969048      -15.6008370534
 C        -4.1189421770        9.3169144899      -16.5171312729
 C        -2.5183663611       10.4184848351      -14.9569957645
 H        -5.2645356734       10.6717301007      -13.5650738643
 H        -5.9246324428        9.1587102371      -13.0779172588
 H        -6.0964171229        9.5816901657      -14.7369577700
 H        -2.1823369088        7.3044127241      -17.3410714883
 H        -3.6129066530        6.5815632903      -16.6064213280
 H        -0.8034125046        5.6202799987      -15.8925412717
 H        -1.7888671950        4.8617841755      -17.1835199520
 H         0.8922121620        2.6872430654      -14.7603947496
 H         1.1001379270        2.8122447204      -13.0649717858
 H         2.9294901321        3.5628210177      -13.4199331230
 H         2.1782652101        5.1080356488      -13.4146305804
 H         5.1576134849        6.9563802574      -14.2139536218
 H         6.7346844075        6.2809005589      -13.8126397735
 H         6.1604545827        6.7466056335      -11.5177801940
 H         5.4691548369        5.2367201219      -11.6847462106
 H         1.0516516223        7.0938278864      -10.8757194953
 H         1.0629794463        8.0108452509       -9.4996892977
 H         0.0558480902        6.0580379650       -8.1581222730
 H        -0.1201155397        5.1250854463       -9.6750632859
 H        -3.2969064185        3.7189323534       -7.7033696553
 H        -1.7106296113        3.6966636446       -8.3926086967
 H        -2.5204659092        2.0586642519      -10.0335480592
 H        -4.1383958963        2.3839332162       -9.6005803934
 H        -5.3831985143       -2.3049951039       -7.5439276396
 H        -4.9329064456       -0.7562821097       -6.7932171704
 H        -4.8025414878       -2.2835369806       -5.0601248661
 H        -3.2290355067       -1.7016152843       -5.2509902828
 H         0.4861517217       -3.7171680579       -5.9677610576
 H        -0.2973259149       -2.8504001757       -7.2555859984
 H         1.5852299041       -3.5546585105       -8.3498315165
 H         0.4004818334       -4.8043084654       -8.8718690398
 H         0.4847543663       -8.2826065519       -7.5815367229
 H         1.6185216696       -9.2135964149       -8.2135579488
 H        -0.3773992789      -10.2933665445       -8.9343811089
 H         0.0157740207       -9.3048133370      -10.4248179217
 H        -4.1754879442      -10.6780197082       -9.0968339113
 H        -5.0896745346      -10.3520283340      -10.5841400888
 H        -6.7323285606      -10.5418460003       -9.0030207304
 H        -6.4461357794       -8.6672553542       -8.9837735433
 H        -8.5690961152      -10.3857075609       -6.2519846911
 H        -8.3369135503      -11.8262561341       -5.3792595524
 H       -10.4993753915      -12.0672932817       -6.8655861261
 H        -9.4024013571      -13.1754007691       -7.4445123891
 H       -13.1433768426       -9.3476499123       -8.7481545963
 H       -12.1312114055       -8.4198705478       -9.8803731024
 H       -11.3417141680       -6.8481985392       -7.8328510538
 H       -12.7224440529       -7.3697213099       -7.1234126616
 H       -17.2152727284       -6.3323690558       -9.0270993227
 H       -17.3778593950       -7.9141088003       -8.2668431299
 H       -17.0707570831       -7.8483866140      -10.0175021907
 H       -13.6383329176       -4.9058268180       -6.4987097815
 H       -14.1975718678       -6.5544104891       -6.3621203085
 H       -15.3284919072       -5.1835539050       -6.5410906420
 H       -15.8341645600       -4.2404355568       -8.8215607460
 H       -14.9234880367       -4.8878641134      -10.2582477310
 H       -14.1859467735       -3.8698710990       -9.1461593075
 H       -11.1323349533      -10.4922348334      -11.4551271427
 H        -9.3859639348      -11.0421949805      -11.0574407339
 H        -9.9313540898       -9.3514159408      -10.9691987843
 H       -12.2435620723      -11.7276877569       -8.2827281373
 H       -11.8895842340      -12.7667551432       -9.5953239722
 H       -12.8263785017      -11.3802023955      -10.0160831193
 H        -4.4690379150      -12.4405522320       -7.2683789166
 H        -4.5331863864      -12.5971582530       -5.6290281371
 H        -3.6697731920      -11.2446813911       -6.2431232363
 H        -5.3925181378       -9.9659457599       -4.3343204728
 H        -6.3063816226      -11.5017031332       -4.2349649410
 H        -7.0253718168       -9.9809780675       -4.6862594743
 H        -1.1581871365       -7.1255441153      -11.1684931255
 H        -2.6970808629       -6.5102016615      -10.5745333027
 H        -2.5167134887       -7.1762411185      -12.2270710351
 H        -1.5780783245       -9.3516578785      -12.2364310481
 H        -3.2320041390       -9.8082741480      -12.1144305840
 H        -2.1867600875      -10.7749250668      -11.1289489286
 H         2.6486314699       -4.8163412343      -10.0847142375
 H         3.0338471846       -6.2186364900      -10.7017588900
 H         4.1604213672       -5.3954903565       -9.6564696995
 H         3.3628446272       -7.7484520910       -7.0009174816
 H         4.4493942276       -6.6537379357       -7.5342116092
 H         4.2115623701       -8.0181307223       -8.4553978674
 H        -0.4597209412       -3.5760744781       -4.0393378349
 H        -2.1272454468       -3.2504690188       -3.6399004799
 H        -1.3427734569       -2.3003293669       -4.9674570473
 H        -1.3686149394       -6.0774203960       -4.3660852078
 H        -3.0483861126       -6.1316807137       -5.1804823436
 H        -2.8637289498       -5.2986574961       -3.7004578727
 H        -5.1660052207        0.2593427083      -10.5305051452
 H        -5.4411414972        0.7619920541       -8.7918836652
 H        -5.8867310545       -0.7999486300       -9.3529357650
 H        -1.9152845523       -1.1705995986      -10.1823065058
 H        -2.6661779771        0.2363763934      -10.8051272357
 H        -3.4140664740       -1.3281662849      -10.9813615449
 H        -2.0361127210        5.8363071279       -6.9733761940
 H        -3.8364136045        6.0977233082       -7.1699052182
 H        -2.8563640001        7.4711603709       -7.1417707564
 H        -4.7028780234        6.9892980012       -8.8340154826
 H        -4.2945120235        7.0147045458      -10.6898401114
 H        -3.6014136413        8.1959368392       -9.5053787694
 H         4.7411889586        5.6018907997       -8.4892350891
 H         5.2813276590        7.1223340012       -8.0847213779
 H         5.9208989079        6.4695046573       -9.6248261549
 H         4.6828456867        9.0359870811       -9.7195096808
 H         3.4709226863        8.8786876273       -8.3836651860
 H         2.9387424772        9.1508265418      -10.0644676346
 H         5.9470251802        4.0366973649      -16.8854811878
 H         4.2897883774        3.5497726538      -17.3475739812
 H         5.1542662502        2.7946224108      -15.9261174994
 H         5.1181221813        6.4925023671      -16.8279649013
 H         3.9432158879        6.8387476816      -15.7273334580
 H         3.4402206089        6.1215495515      -17.1756227899
 H        -2.7394958510        3.2467914512      -12.4362136976
 H        -1.8269948136        1.7917404347      -12.9918110127
 H        -3.4357033680        2.2760107505      -13.8097994693
 H        -0.7908989190        1.6412545378      -15.1958385949
 H        -0.4890364162        3.0699329375      -16.0852319339
 H        -2.0390676365        2.3674223495      -16.2970103107
 H        -4.4796570000        8.4405512746      -16.9925315642
 H        -3.3911637529        9.7693648722      -17.1652161522
 H        -4.8688529957       10.0837653130      -16.4522203498
 H        -1.9178594882       10.1010020015      -14.0563067636
 H        -3.2673537575       11.1848539141      -14.6746095570
 H        -1.9055988775       10.6799894095      -15.8050260280
 Na       -2.5368483336        6.2584320062      -12.4520880266
 Na       -3.9453163353       -6.8254758695       -7.5340170088
