232

 C        -5.3195244574        9.7432491655      -13.8200280271
 C        -4.0548214805        8.9771367726      -13.8883714225
 O        -3.8106376809        8.2140822562      -12.9738332766
 C        -3.1172240771        9.1148391527      -15.1001855606
 C        -2.2997797704        7.7567186392      -15.2322308996
 O        -1.4519198893        7.5700098856      -14.3632446656
 C        -2.4623353553        6.8735118403      -16.5105829478
 C        -1.8567449177        5.4888252495      -16.2609938005
 C        -2.4086899977        4.7295941552      -15.0707251826
 O        -3.4275175847        5.0181013019      -14.4830469964
 C        -1.5389402685        3.4843521746      -14.5061449431
 C        -0.2875797899        3.9423202820      -13.7056789137
 O        -0.3807197702        4.7060311775      -12.7769405718
 C         0.9156639842        3.1676831724      -14.0232598108
 C         2.1992938256        4.0701999327      -13.8696140318
 C         2.6788530988        4.3753661229      -15.3110937884
 O         1.9268868949        4.2267390125      -16.2246115244
 C         4.1721300916        4.8329917117      -15.6294083858
 C         5.0034646008        4.8262154032      -14.1897678318
 O         5.2664664806        3.8138496006      -13.6247716606
 C         5.3047672620        6.2126212263      -13.4909590242
 C         5.3861632485        6.1486626048      -12.0134142120
 C         4.2211830235        7.0859636308      -11.4033894646
 O         3.6454005889        7.7368750958      -12.2611717651
 C         3.8857132536        7.2548411531       -9.8531370231
 C         2.5059195551        6.2645835176       -9.5351431926
 O         2.6365610707        5.1560498630       -8.9972836207
 C         1.1884443714        6.9898037504       -9.7476569995
 C        -0.0005413546        6.2850798582       -9.2069557152
 C        -1.2960718046        6.6966460424       -9.8986235399
 O        -1.3331284879        7.3220876249      -10.9359742529
 C        -2.6827265346        6.1576805601       -9.1466195061
 C        -3.0526714262        4.7481358454       -9.6489651843
 O        -3.2524963882        4.5762942074      -10.8297475020
 C        -2.9981651342        3.5509378251       -8.7028111410
 C        -3.2253592394        2.2633379366       -9.5709420397
 C        -3.1458080750        1.0852701256       -8.5829403823
 O        -2.4468998388        1.2637363215       -7.6298571369
 C        -3.6699057326       -0.3879538376       -9.1035891249
 C        -3.5356739282       -1.4714478560       -8.0553101091
 O        -2.7294960014       -2.3639540248       -8.2001631488
 C        -4.5506603836       -1.7366257705       -6.9223720662
 C        -3.7849996758       -2.3605249926       -5.6796816037
 C        -3.5529365003       -3.8194196364       -5.7614002663
 O        -4.3340901414       -4.5272122017       -6.3470637226
 C        -2.0715519459       -4.4179773602       -5.3548937779
 C        -1.3679968242       -4.6630628017       -6.6881336633
 O        -1.8237399100       -5.5087992661       -7.4792224510
 C        -0.1292592337       -3.8639982611       -6.9706434206
 C         0.7012828054       -4.4143161338       -8.0766703830
 C         1.6544426965       -5.5085857816       -7.5732145864
 O         1.6612508127       -5.8270680703       -6.4033065392
 C         2.4671703270       -6.3608566374       -8.6065224993
 C         1.4853936599       -7.3180962145       -9.3395790710
 O         0.9894588791       -7.1058027714      -10.4466491777
 C         0.9378151301       -8.5286435672       -8.5884282599
 C        -0.1775932288       -9.1607485364       -9.4076651390
 C        -1.6068334011       -8.4632543977       -9.2580861212
 O        -1.9022086927       -8.2012227152       -8.0455579393
 C        -2.6236008932       -8.6155070097      -10.4513129264
 C        -4.1688976096       -8.6474198364       -9.9570118547
 O        -4.7656169536       -7.6005608160       -9.7951194541
 C        -4.8616137778       -9.9464146065       -9.6386087994
 C        -6.0585949614       -9.7244882618       -8.7192716440
 C        -5.6682963401       -9.6085494680       -7.1846943689
 O        -5.3959616019       -8.5423125575       -6.6341264418
 C        -5.7740374345      -10.9226582732       -6.2872688573
 C        -6.8891249386      -11.8956795370       -6.9022730182
 O        -6.5378269350      -12.9459348197       -7.4501034196
 C        -8.4957589568      -11.4519485156       -6.6431922803
 C        -9.5068338320      -12.2039214087       -7.4484048122
 C        -9.4013069816      -11.7592563354       -8.9015582714
 O        -8.4101736870      -11.9189682748       -9.5756175163
 C       -10.7111708602      -10.9865437726       -9.4253842766
 C       -10.9357054078       -9.5749467305       -8.6252802802
 O       -10.0195806625       -9.0678509939       -8.0006392855
 C       -12.2171537103       -8.7351275489       -8.8298636363
 C       -12.1610063933       -7.3865720849       -8.2685638013
 C       -13.1357342537       -6.3883720338       -8.9382590858
 O       -12.8018801299       -5.9778617185       -9.9945008136
 C       -14.4563280234       -6.0091247798       -8.2399295433
 C       -15.3898644819       -7.2867934648       -8.3509425666
 O       -15.0898833798       -8.3352360549       -7.7946408297
 C       -16.7686078365       -7.0810816291       -8.9857048162
 C       -14.3565488055       -5.6388721656       -6.7197135950
 C       -15.1641425888       -4.8141713751       -9.0460144791
 C       -10.6801466403      -10.5669653445      -10.9842191310
 C       -11.8679709175      -12.0537711559       -9.3389777941
 C        -4.4199828719      -11.6841637297       -6.3205973373
 C        -6.2529787671      -10.4199966281       -4.9207406232
 C        -2.4605421738       -7.2756518758      -11.1433242114
 C        -2.2646361599       -9.8947796489      -11.3412526040
 C         3.1170580240       -5.3807569997       -9.5773197871
 C         3.5000096241       -7.2278752265       -7.8994722991
 C        -1.3041237813       -3.4534506614       -4.3927200572
 C        -2.3886539113       -5.7369152188       -4.5225782763
 C        -5.1032482949       -0.3177907085       -9.5023586501
 C        -2.8139837580       -0.5951232912      -10.3701478297
 C        -2.5506989843        6.3504158289       -7.6300872462
 C        -3.8772181610        7.0956189089       -9.6787869773
 C         5.0660616769        6.7657860675       -9.0058407062
 C         3.6476870856        8.6983496828       -9.5834372545
 C         4.7210949664        3.6303161276      -16.4348288635
 C         4.2590063601        6.1861456023      -16.4495430570
 C        -2.4464506030        2.8451984408      -13.4812474027
 C        -1.4592697134        2.4502855007      -15.6359661980
 C        -3.8407191801        9.3769993309      -16.4492220422
 C        -2.1278691761       10.3960061469      -14.7353723861
 H        -5.4897274137       10.5655025303      -14.5174031115
 H        -5.6280776185       10.0945220957      -12.8214412078
 H        -6.0737109482        8.9349309250      -13.9961667464
 H        -1.8939711847        7.4286880740      -17.2434288641
 H        -3.5028206481        6.9333382284      -16.8125581930
 H        -0.7554956811        5.6836527523      -15.9883792539
 H        -1.8192130513        4.9851712264      -17.1705709257
 H         0.8304142946        2.6615884400      -15.0192732596
 H         1.0796248129        2.3579316195      -13.3098116530
 H         2.9479369740        3.5991576550      -13.2366018771
 H         2.0161199076        5.0189031158      -13.4218762729
 H         4.4274219971        6.8447876594      -13.7124004738
 H         6.0977652168        6.6581442206      -14.0099425727
 H         6.2971607298        6.3801917239      -11.4490738266
 H         5.2255398511        5.0354673691      -11.7771974407
 H         1.0890999553        7.4475451516      -10.7308845152
 H         1.3823095343        7.8644755976       -9.1620546805
 H        -0.1579595143        6.5321158912       -8.1097491153
 H        -0.0189436759        5.2038211976       -9.3749656020
 H        -3.6461105638        3.5929879933       -7.7877899269
 H        -1.9183025469        3.6684269057       -8.3818879974
 H        -2.4065154220        2.2077094260      -10.2735656175
 H        -4.1760125959        2.2484380045      -10.2175522456
 H        -5.2053569466       -2.5181891965       -7.3063539440
 H        -5.1187580612       -0.8592152428       -6.6391162601
 H        -4.4030459253       -2.0861332947       -4.7730158328
 H        -2.8568878722       -1.9820020361       -5.3854257373
 H         0.4331007153       -3.9013316676       -5.9922205333
 H        -0.3568065821       -2.7995007751       -7.1614022100
 H         1.3472263038       -3.6304385049       -8.4815197498
 H         0.0231536966       -4.8652364743       -8.8302874744
 H         0.6652168697       -8.1058522295       -7.5671674693
 H         1.7103144309       -9.3139952010       -8.2289237152
 H        -0.4398341570      -10.1819396140       -9.1162393060
 H         0.1454861249       -9.0460658284      -10.4507128890
 H        -4.2677689072      -10.7334886621       -9.2994317489
 H        -5.3890808491      -10.3495788265      -10.5242810130
 H        -6.7892072732      -10.5818531711       -8.7234465527
 H        -6.4194498866       -8.8146938395       -9.2039262763
 H        -8.4207183439      -10.3898571849       -6.8652460837
 H        -8.6581347535      -11.5568822556       -5.5516711803
 H       -10.5179910802      -12.0774817608       -6.9623900201
 H        -9.2644678325      -13.3139269498       -7.2849623106
 H       -13.0646054217       -9.2253008550       -8.3596107188
 H       -12.3971973738       -8.6011056716       -9.9887928312
 H       -11.1916209844       -6.8907047312       -8.4578152831
 H       -12.1911895871       -7.4769637577       -7.1280994723
 H       -17.3703588263       -6.2695540627       -8.6502831991
 H       -17.3462757077       -7.9554921221       -8.7275150582
 H       -16.6101649682       -7.0263322615      -10.0776046002
 H       -13.4576363952       -5.0578252929       -6.5860646803
 H       -14.1535026171       -6.4554065428       -5.9979089516
 H       -15.2491341723       -5.0199820973       -6.3971827531
 H       -16.0010672441       -4.3927694460       -8.5660936469
 H       -15.3806767164       -5.0179969913      -10.0967622912
 H       -14.5252351590       -3.9195677332       -9.0832537090
 H       -11.4933784262       -9.7882066538      -11.1635569110
 H       -10.5758022686      -11.3775386672      -11.6469534599
 H        -9.7760211586      -10.0191643943      -11.0671175193
 H       -12.0137429117      -12.3648735579       -8.2765971281
 H       -11.5560579978      -12.9932682488       -9.9260873031
 H       -12.7238607098      -11.6905096524       -9.8388910701
 H        -4.0876068121      -11.8958986666       -7.3287561364
 H        -4.5776477320      -12.6878199062       -5.8550995611
 H        -3.6564018743      -11.3786426727       -5.6552124531
 H        -5.5459182223       -9.8110942773       -4.3725021528
 H        -6.5036402270      -11.2006742020       -4.2568390558
 H        -7.1553869442       -9.8398072222       -4.9695635813
 H        -1.5594748306       -7.2570579147      -11.7030193819
 H        -2.5547663027       -6.3548417481      -10.5404783531
 H        -3.2948484622       -7.1227204076      -11.8644846937
 H        -1.2753325713       -9.8269900183      -11.6173237961
 H        -2.7760633413      -10.0312537051      -12.3342549391
 H        -2.5257592427      -10.7811705955      -10.8054696564
 H         2.4016187911       -4.8266417433      -10.2369679908
 H         3.8390388520       -5.8096852182      -10.2806142400
 H         3.7258503267       -4.6420417709       -9.0008566247
 H         3.2850919963       -7.7718104538       -6.9521731976
 H         4.4049950869       -6.6438059940       -7.5698394015
 H         3.9453277173       -7.9317009408       -8.5771860816
 H        -0.4007908806       -3.9814909109       -4.0394494587
 H        -1.8865468041       -3.0839981273       -3.5972383659
 H        -0.8822970787       -2.6268572674       -4.9277393371
 H        -1.5586284235       -6.4470245468       -4.6458610035
 H        -3.3562434837       -6.1438715861       -4.8055380149
 H        -2.6642355044       -5.4175248876       -3.4703200646
 H        -5.1485241957        0.1739154455      -10.4670228842
 H        -5.6676137707        0.1260250739       -8.6006058061
 H        -5.5022946512       -1.3076966489       -9.6985043568
 H        -1.8137528276       -0.2920227165      -10.2838071267
 H        -3.2288998123       -0.0079267975      -11.1953227535
 H        -2.8145498910       -1.6897656341      -10.5687181954
 H        -1.7771649667        5.6783051845       -7.1459670041
 H        -3.5488428076        6.1932924157       -7.2266414402
 H        -2.2382405366        7.3557830169       -7.3891420873
 H        -4.7231593779        6.8681068872       -9.0646674808
 H        -4.0137955839        6.7306229424      -10.6596559248
 H        -3.6667256749        8.1354415121       -9.8334470061
 H         5.2423504179        5.6479529504       -9.0956208543
 H         4.8052269013        6.8937612771       -7.9204572624
 H         5.8763791633        7.3864009759       -9.2221988795
 H         4.6923894561        9.1531644828       -9.6216212062
 H         3.2002358097        8.7702716486       -8.6541040975
 H         2.8758515152        9.0799176088      -10.3051405141
 H         5.7347910686        3.7064755769      -16.7495745979
 H         4.0723039838        3.4933248142      -17.3429852700
 H         4.7473658033        2.8262507691      -15.6829989352
 H         5.0694229392        6.7907167604      -16.0453900662
 H         3.3167670743        6.8131316717      -16.4139534025
 H         4.5861279756        5.8818058066      -17.4520900474
 H        -2.5810222250        3.5376636887      -12.7444005131
 H        -1.9459744411        1.9774387705      -13.0821638228
 H        -3.4331016739        2.6779294432      -13.8979503486
 H        -0.9212617802        1.5554895089      -15.4124187774
 H        -1.0815091634        2.9143000255      -16.5931378838
 H        -2.4874104227        2.2229706539      -15.8572428297
 H        -4.7995047533        8.7861644480      -16.4355622061
 H        -3.1827983977        9.0350342712      -17.2585240336
 H        -4.1122308939       10.4048696856      -16.6667417363
 H        -1.5202643222       10.2918611587      -13.8640796858
 H        -2.7957610174       11.2806901995      -14.7404676577
 H        -1.6245804641       10.4159394744      -15.7158065512
 Na       -2.3380740747        6.2972450186      -12.5853644397
 Na       -3.7109757419       -6.8126313926       -7.1542160966
