232

 C        -5.2910804785        9.8308687334      -13.9087977623
 C        -4.0225738030        8.9244735413      -13.8154578589
 O        -3.8362035492        8.1269396064      -12.9396774451
 C        -3.0449455209        9.1545599854      -15.1197037928
 C        -2.2729046296        7.7965305360      -15.2416304605
 O        -1.4644191762        7.4556568953      -14.3699154292
 C        -2.3985497667        6.8903066245      -16.4292541613
 C        -1.7797603848        5.5211376534      -16.1869934625
 C        -2.3322493952        4.8256921414      -14.9770858471
 O        -3.3026128110        5.2306914343      -14.3629403937
 C        -1.7845323997        3.4393363752      -14.5568671656
 C        -0.2882145700        3.8010889257      -13.8072832908
 O        -0.3699187645        4.6457390980      -12.9354835478
 C         1.0667767602        3.0434760757      -13.8773618207
 C         2.2958119179        4.0364047765      -13.8651181783
 C         2.6398871501        4.4517292417      -15.2979647130
 O         1.9372347691        4.2083807715      -16.2147662065
 C         4.2344718404        4.8414153286      -15.5176906932
 C         5.0597003315        4.8830125760      -14.2215466267
 O         5.3634370770        3.7772353438      -13.7470500265
 C         5.1609008213        6.1743369924      -13.5223447584
 C         5.2064331284        6.0719485234      -12.0379557265
 C         4.2071361594        7.0845366821      -11.4847166796
 O         3.5250341618        7.7280821996      -12.2150902716
 C         3.8583418859        7.2041081517       -9.9388860491
 C         2.6109186476        6.4003593116       -9.5400413324
 O         2.6479581701        5.2615491464       -9.1742630723
 C         1.2366184515        7.1303601521       -9.7804750685
 C         0.0529183102        6.3126082152       -9.1401754428
 C        -1.2601833540        6.6605171468       -9.9086320006
 O        -1.2974942784        7.2648970087      -10.9346249471
 C        -2.6086221656        6.1675329453       -9.2501651164
 C        -2.9390883821        4.7603643401       -9.8111595885
 O        -3.2131291538        4.7011138842      -10.9967795482
 C        -3.1117199962        3.5226249865       -8.8956391884
 C        -3.3833859757        2.2237234979       -9.6048766267
 C        -3.1116642245        1.0317501736       -8.5903635508
 O        -2.5484400595        1.1921622565       -7.5498660374
 C        -3.6837797119       -0.3500052288       -9.1086833012
 C        -3.3997893697       -1.5673195613       -8.0275621348
 O        -2.5506409436       -2.3468944832       -8.3014276093
 C        -4.3745399164       -1.5912685553       -6.8117249391
 C        -3.7473187478       -2.2502666308       -5.6369481332
 C        -3.5638140168       -3.8425603325       -5.7939074498
 O        -4.3897435412       -4.6354522437       -6.2043383689
 C        -2.2113704662       -4.3858484114       -5.2691871005
 C        -1.4095927861       -4.6216430477       -6.6391386648
 O        -1.8288335379       -5.4403569838       -7.4319443905
 C        -0.1773447475       -3.8152121147       -7.0138916349
 C         0.6155408019       -4.4158020877       -8.1837715586
 C         1.4997747781       -5.6248408395       -7.6326036997
 O         1.5331623611       -5.8152464164       -6.4132474028
 C         2.5029543360       -6.3696467169       -8.6471061005
 C         1.4324176527       -7.2250776814       -9.4000747385
 O         0.9864121105       -6.9968171285      -10.5056378126
 C         0.8809822356       -8.4746684665       -8.6201593885
 C        -0.1531005080       -9.2228620858       -9.3477923208
 C        -1.6272231653       -8.7316476905       -9.1300444938
 O        -1.9393147281       -8.0657007441       -8.1681429564
 C        -2.6309982267       -8.6590931528      -10.3398803380
 C        -4.1497810629       -8.5897446761       -9.8485007757
 O        -4.7603112197       -7.5758572730       -9.8109122075
 C        -4.8127909720       -9.9404146568       -9.6075088112
 C        -6.0239952029       -9.7746981138       -8.6340730117
 C        -5.6222737131       -9.6175389196       -7.1531064385
 O        -5.3164148778       -8.5636365655       -6.7184207853
 C        -5.8039644777      -10.8616906257       -6.2690009203
 C        -6.8524761608      -11.8364574383       -6.8126950639
 O        -6.5765813336      -12.8872288849       -7.2497073755
 C        -8.3146019616      -11.4982156719       -6.6568482245
 C        -9.3490239210      -12.2576169497       -7.5417384323
 C        -9.3742460138      -11.7555563490       -8.9869600404
 O        -8.4039593759      -11.9785467583       -9.6927712901
 C       -10.7156789987      -10.9528479006       -9.5556119324
 C       -10.9578416054       -9.6617831647       -8.7718095320
 O       -10.0803321620       -9.2091349247       -8.1000641223
 C       -12.3738408074       -8.8260859165       -8.8268715161
 C       -12.1078245775       -7.3398619219       -8.2172417640
 C       -13.1152363554       -6.3240121384       -8.8661601992
 O       -12.9460009284       -5.8003133842       -9.9712822667
 C       -14.4896637690       -6.0298562341       -8.1672075541
 C       -15.4988270845       -7.2479997591       -8.2054549406
 O       -15.1924076408       -8.2706241970       -7.6230360722
 C       -16.7834435113       -7.0795220181       -8.9979974790
 C       -14.1748715422       -5.6824105236       -6.7232304364
 C       -15.1290766218       -4.9165904599       -8.9822526494
 C       -10.6664893569      -10.6772591362      -11.0530659444
 C       -11.9178020626      -11.9624733938       -9.2299155620
 C        -4.3762607407      -11.4744170370       -6.3427228910
 C        -6.2697502409      -10.3759255370       -4.9022114234
 C        -2.4702687191       -7.3314378442      -11.1973186182
 C        -2.4750252882       -9.8148299069      -11.2415079357
 C         3.2177561892       -5.2652470807       -9.5118722946
 C         3.5168940742       -7.1899706084       -7.9097962465
 C        -1.4357837667       -3.5470450020       -4.3180327008
 C        -2.4195169060       -5.7550544938       -4.6109252176
 C        -5.2303396922       -0.2728265081       -9.6000307058
 C        -2.8202117447       -0.8186780835      -10.3143544163
 C        -2.4637264014        6.2791271625       -7.7010551120
 C        -3.7625870138        7.1917777818       -9.7100889633
 C         5.0880227823        6.7389949570       -9.0586949636
 C         3.5627681456        8.7143366727       -9.5112671826
 C         4.7049775417        3.6008106919      -16.2507745692
 C         4.2986394449        6.1532568063      -16.3105746940
 C        -2.6721759868        2.7845896488      -13.4286438978
 C        -1.5011173300        2.4514282367      -15.7057305993
 C        -3.8264766015        9.5754960249      -16.3539140375
 C        -1.9969783878       10.1602860385      -14.7378719457
 H        -5.3248674802       10.4409410482      -14.8357120411
 H        -5.3830567803       10.5675780583      -13.1441281342
 H        -6.2077324217        9.2771524171      -13.7737637136
 H        -1.9629805580        7.4111620438      -17.2734308012
 H        -3.5133129565        6.8705851400      -16.5732644912
 H        -0.6790796439        5.5829104766      -16.1733469144
 H        -1.9903727070        4.9571438416      -17.1293862050
 H         1.1083319101        2.2884736642      -14.6949748355
 H         1.1960039687        2.4238593441      -12.9416265940
 H         3.2082322822        3.4870683301      -13.5071988864
 H         2.1844660752        4.8735066476      -13.2139416957
 H         4.3420195639        6.7946051632      -13.8636911675
 H         6.1241292024        6.6495507946      -13.8871554177
 H         6.2328070920        6.4202481595      -11.6895229880
 H         5.1114072763        5.1010390564      -11.5214125785
 H         1.1467744623        7.2023817038      -10.8711733138
 H         1.2617291771        8.2159835480       -9.4930980557
 H        -0.0788892690        6.4800918447       -8.1579252964
 H         0.1853552927        5.2337220205       -9.3428230601
 H        -4.1505470253        3.8167340782       -8.4070818268
 H        -2.3615110125        3.4805116990       -8.0943308123
 H        -2.6997053414        2.1660449312      -10.5166956983
 H        -4.3734668047        2.1610630832       -9.9934173225
 H        -5.3276537292       -2.2181520846       -7.1211382422
 H        -4.6038970687       -0.6302878984       -6.6068344121
 H        -4.3783035996       -2.0815429678       -4.7541988471
 H        -2.7913231310       -1.8623646778       -5.2553205700
 H         0.4456382828       -3.6625955664       -6.1289323248
 H        -0.5442697637       -2.8713919898       -7.2839695248
 H         1.3279560035       -3.7114447812       -8.5965863915
 H        -0.1502222933       -4.8186793434       -8.8934835995
 H         0.5543196207       -8.1089469769       -7.6143052551
 H         1.5877204675       -9.1316463898       -8.3359536144
 H        -0.0452365599      -10.3001177561       -9.1728852268
 H        -0.0006249497       -8.9301632692      -10.4458865713
 H        -4.1806735273      -10.7105945180       -9.1863142755
 H        -5.2093418769      -10.3695447676      -10.4711907997
 H        -6.6041350068      -10.6117496778       -8.5916066139
 H        -6.5030837942       -8.9347132681       -9.0737619062
 H        -8.2580750655      -10.3957011511       -6.7332604917
 H        -8.5277098894      -11.7601384602       -5.6291068557
 H       -10.2707041389      -12.2685724467       -6.9535374802
 H        -8.9670626903      -13.3334470998       -7.4747747130
 H       -13.1837696419       -9.3447268768       -8.3072714821
 H       -12.5380970597       -8.7602353350       -9.9034439678
 H       -11.0204575047       -7.0818720809       -8.2813684078
 H       -12.2897400496       -7.5130576792       -7.1414613380
 H       -17.4399710345       -6.4902224883       -8.3139105733
 H       -17.3625289628       -7.9987337933       -9.0404345635
 H       -16.6680842205       -6.5517660482       -9.9042346196
 H       -13.3536767998       -4.9483881049       -6.6514939938
 H       -13.7185722794       -6.4939818949       -6.1888604952
 H       -15.0902571022       -5.3946588831       -6.1623966531
 H       -16.1207464553       -4.5093174579       -8.6316809361
 H       -15.2137819149       -5.1489896221       -9.9717368320
 H       -14.5356523352       -3.9835524263       -8.9311108573
 H       -11.2237702442       -9.7842519466      -11.2208476030
 H       -10.9639841740      -11.4817082178      -11.6853215951
 H        -9.6034932106      -10.4241675768      -11.2727550720
 H       -11.8489604242      -12.2502221644       -8.2061997158
 H       -11.9237362506      -12.8662029163       -9.8631646476
 H       -12.8480382727      -11.4168229351       -9.4710891423
 H        -3.9616455361      -11.4946830040       -7.3879295763
 H        -4.3498243348      -12.5213845518       -5.9633053997
 H        -3.7095056541      -11.0844697647       -5.5597489828
 H        -5.5087622414       -9.7785895083       -4.3880191637
 H        -6.5251364204      -11.1637289848       -4.1718896189
 H        -7.1473695793       -9.8254784816       -4.9448341701
 H        -1.5642185508       -7.3000635653      -11.8064697267
 H        -2.5813617392       -6.3725637298      -10.6417157284
 H        -3.3536145189       -7.2465076601      -11.8546251935
 H        -1.5222794832       -9.6598158936      -11.6775498240
 H        -3.0938902038       -9.8775982007      -12.1218796051
 H        -2.6016985025      -10.7736628519      -10.7652418846
 H         2.7909525710       -4.9656801474      -10.4943427359
 H         4.3343722038       -5.4864440040       -9.7118204192
 H         3.3455999394       -4.3561547505       -8.8964763563
 H         3.2040555981       -7.8082545111       -7.0502323207
 H         4.3230058444       -6.6370702220       -7.4573973767
 H         4.0280321952       -7.8638232490       -8.6011674493
 H        -0.4755870829       -4.0455000261       -4.1629579978
 H        -1.8972073438       -3.1823039415       -3.4216543750
 H        -1.1018357716       -2.6902363948       -4.9138199476
 H        -1.5068384969       -6.2278301861       -4.8897499373
 H        -3.2750248471       -6.2978216945       -5.0036868986
 H        -2.6973019325       -5.6926996817       -3.5497798364
 H        -5.4591235909        0.5476404732      -10.3305301574
 H        -5.9086019929       -0.4503768622       -8.8279430408
 H        -5.2190679289       -1.1704054625      -10.2332682660
 H        -1.8062703876       -0.3734340952      -10.3032408422
 H        -3.2628806696       -0.5179715738      -11.2995811259
 H        -2.6962323784       -1.9252763111      -10.2179685431
 H        -1.7107726117        5.5483677448       -7.3556544462
 H        -3.4194162349        6.0720608099       -7.2205486413
 H        -1.9814613870        7.2064477444       -7.4240828213
 H        -4.6720330814        6.8777402578       -9.1800942907
 H        -3.8410681644        7.1252970445      -10.7763768192
 H        -3.4834462568        8.1678964543       -9.6020716607
 H         5.5982403067        5.8248136681       -9.3407275009
 H         4.6575503078        6.5072647023       -8.0743255336
 H         5.7540128493        7.6049785268       -8.9167650899
 H         4.5102333581        9.2070988711       -9.6806662136
 H         3.2297620306        8.7124457348       -8.4469632738
 H         2.7387074439        9.0824544512      -10.1094864412
 H         5.7469078699        3.8348672163      -16.4912611415
 H         4.2155649586        3.5075140823      -17.1893762130
 H         4.7863334082        2.7754257690      -15.5730623462
 H         5.0090395650        6.9003675806      -15.8143371247
 H         3.2922828508        6.6244847382      -16.3269221942
 H         4.7545673145        5.9291998799      -17.3399121283
 H        -2.8798980262        3.5074074984      -12.5908427366
 H        -2.2340836516        1.8992089928      -13.1075346254
 H        -3.6663554456        2.6039932921      -13.8624831970
 H        -1.0134233050        1.5310875781      -15.2138283632
 H        -0.9276718686        2.8156877447      -16.5465845485
 H        -2.4559333762        2.1133825019      -16.1122530495
 H        -4.7848194872        8.9540841240      -16.3507063997
 H        -3.2085663998        9.4750216089      -17.2819496071
 H        -4.2182335327       10.6064423919      -16.2777303348
 H        -1.5022032990        9.7970145526      -13.8309207007
 H        -2.5037112920       11.1469814133      -14.5936307891
 H        -1.3812784797       10.2078560661      -15.5753094810
 Na       -2.3096133760        6.2252470720      -12.7200793338
 Na       -3.7157135842       -6.8606349091       -7.1120575515
