232

 C        -5.2741068226        9.8612336957      -13.7867731662
 C        -4.0775024573        8.9227198419      -13.9445190117
 O        -3.9132422753        8.1629056294      -12.9740090829
 C        -2.9984824025        9.1164506160      -15.0699709547
 C        -2.1847671547        7.7841620831      -15.2290161329
 O        -1.3892854443        7.4743908016      -14.3715416881
 C        -2.4306452766        6.8001242087      -16.5015391434
 C        -1.7497563815        5.4445537193      -16.2292036802
 C        -2.3591758380        4.7971360552      -15.0123740876
 O        -3.2199677049        5.4160562392      -14.4090229855
 C        -1.7246089395        3.2708842184      -14.4647819267
 C        -0.3969275811        3.6613067619      -13.6976407769
 O        -0.4360173071        4.7480085184      -13.1091352010
 C         0.9980637953        2.9484965674      -13.7917110310
 C         2.2317209861        3.8381507496      -13.8075435070
 C         2.7491204669        4.2920840001      -15.2671259266
 O         1.9245773032        4.3940286848      -16.2104888299
 C         4.2014219393        4.7088096527      -15.5462411584
 C         4.9039492460        4.8183635248      -14.1481627878
 O         5.5350836537        3.8531618672      -13.7471126919
 C         5.2132520763        6.1976051362      -13.5214083527
 C         5.0477175782        6.1308719579      -11.9242680182
 C         4.0263674315        7.1377082928      -11.4204303675
 O         3.2799091682        7.8082253309      -12.1141218986
 C         3.8936936630        7.3004953280       -9.8449203678
 C         2.6548066985        6.5012819541       -9.6417816579
 O         2.6758858016        5.3299427012       -9.3509950501
 C         1.2629035386        7.1621148043       -9.9073504882
 C         0.1297653248        6.3140900315       -9.1907917517
 C        -1.2083380100        6.6323624285       -9.8575617367
 O        -1.1425227733        7.2018053459      -10.9564910704
 C        -2.5193441864        6.2229989960       -9.2954309357
 C        -3.0053983483        4.8810497561       -9.9678238220
 O        -3.1026670086        4.7357401094      -11.1903962717
 C        -3.2683494594        3.6574142519       -9.0240257658
 C        -3.4813358010        2.2408063918       -9.5447060776
 C        -3.2483398303        0.9513238652       -8.6878395104
 O        -2.7392688131        1.0088675410       -7.5637655516
 C        -3.6359937918       -0.5239663600       -9.2731894578
 C        -3.4194866572       -1.5225685912       -8.1055669901
 O        -2.4758450120       -2.3049737705       -8.1373461733
 C        -4.2407735373       -1.4633445991       -6.7975007153
 C        -3.8332948294       -2.2898522802       -5.5825405858
 C        -3.5394626331       -3.8749365374       -5.6863138525
 O        -4.4866554410       -4.5118197543       -6.1428124231
 C        -2.0869526104       -4.4480093964       -5.2747113727
 C        -1.4575941478       -4.6166547218       -6.6501311249
 O        -1.8772863480       -5.4414423479       -7.4279920479
 C        -0.2249921640       -3.7446575100       -7.0650099519
 C         0.5658972297       -4.4509947746       -8.1985267545
 C         1.5158276459       -5.5243122328       -7.6017008914
 O         1.4110455402       -5.9242583923       -6.4945247081
 C         2.4554790372       -6.2588000062       -8.5813519820
 C         1.3980822896       -7.1639765575       -9.4608451585
 O         1.0712939232       -6.8001779826      -10.5491903967
 C         0.8083817852       -8.4193009485       -8.6853603474
 C        -0.3155885216       -9.2408439640       -9.4085106818
 C        -1.6540812891       -8.5296422933       -9.1677387890
 O        -1.8668806251       -8.0997099977       -8.0821285025
 C        -2.6771206552       -8.6980873339      -10.4044591908
 C        -4.1038561594       -8.5944750195       -9.7492845099
 O        -4.6928346403       -7.4944337486       -9.6659529959
 C        -4.7542240902       -9.9131403393       -9.5255162428
 C        -6.1189381965       -9.7872963976       -8.6754465311
 C        -5.7411966228       -9.5423265373       -7.1533707650
 O        -5.1253331117       -8.5411970839       -6.8114542378
 C        -5.8343755875      -10.7368309610       -6.2167468681
 C        -6.8649744626      -11.9074994948       -6.7663553219
 O        -6.4838412429      -12.9869891156       -7.1260782409
 C        -8.3870905427      -11.4146691758       -6.6047724754
 C        -9.1952675611      -12.2484815226       -7.6412525213
 C        -9.3871614518      -11.6822317606       -9.0556780401
 O        -8.5523164951      -11.8557399626       -9.9173073801
 C       -10.7696628817      -10.9930992902       -9.5618936559
 C       -10.9335883193       -9.6508130881       -8.8165706632
 O       -10.0334015901       -9.2749051089       -8.0915702815
 C       -12.2974939100       -8.9323974732       -8.8984132466
 C       -12.1896450273       -7.3891135277       -8.3833830152
 C       -13.2396294958       -6.4948810586       -8.9438172010
 O       -12.8385990464       -5.7695025889       -9.8744066193
 C       -14.5031865750       -5.9926492495       -8.1404724725
 C       -15.5721325917       -7.2528049870       -8.0486452178
 O       -15.2905436442       -8.2565955652       -7.4472246352
 C       -16.8142816263       -7.2159898001       -8.9338549913
 C       -14.1257672022       -5.6456925907       -6.6677683871
 C       -15.0327046523       -4.7495285927       -8.7804038429
 C       -10.5709185980      -10.8740746083      -11.0831908895
 C       -12.0659723734      -11.9014631676       -9.1931847383
 C        -4.3810338371      -11.3330622890       -6.2036541080
 C        -6.1252663865      -10.3468165947       -4.7487930539
 C        -2.3519618417       -7.4095837446      -11.1841996620
 C        -2.6124026225       -9.9231670935      -11.3245392314
 C         3.1772940425       -5.2945069753       -9.5077697107
 C         3.4516185780       -7.1079141310       -7.8570420837
 C        -1.4544996698       -3.5172650929       -4.1772077526
 C        -2.4005382490       -5.9150769278       -4.6170403706
 C        -5.1730039723       -0.3787628438       -9.5314549809
 C        -2.7830050108       -0.8692815726      -10.4818914315
 C        -2.5108843668        6.1301988380       -7.6902528681
 C        -3.6142322350        7.2221074281       -9.6535799139
 C         5.1335254174        6.6244278413       -9.0441887690
 C         3.6809870212        8.8427715671       -9.5435020782
 C         4.7709816790        3.4945165694      -16.4161440594
 C         4.3012589669        6.1011755679      -16.3391722829
 C        -2.7107379832        2.6814126853      -13.5027233043
 C        -1.4560872752        2.4470100895      -15.7584855639
 C        -3.7076461406        9.6217431563      -16.3233509263
 C        -1.7898657087       10.1197309626      -14.6349259587
 H        -5.4984334610       10.4526969155      -14.6438593110
 H        -4.9057589224       10.6069771939      -13.0791248141
 H        -6.1447109333        9.5355965991      -13.2480996724
 H        -2.0550814300        7.2642368402      -17.4516545596
 H        -3.5269550013        6.7609485682      -16.5283855775
 H        -0.7102408411        5.5891756628      -16.0784431471
 H        -1.7839404003        4.8600297626      -17.2267789977
 H         0.9767298829        2.2497047252      -14.6247051477
 H         1.0993993339        2.2371590284      -12.9315350243
 H         3.0796998288        3.3492263586      -13.3164896491
 H         2.0064850720        4.8007349185      -13.2363588186
 H         4.5502150284        6.9730038596      -13.9504869709
 H         6.2996519902        6.4259570174      -13.8254018360
 H         6.0281651237        6.3244395911      -11.4521410320
 H         4.7276683317        5.2535023273      -11.4188621966
 H         1.1567771379        7.2414192636      -11.0029733925
 H         1.2983755251        8.2456623634       -9.5747292618
 H         0.0069960969        6.6062397863       -8.1531404570
 H         0.3713025315        5.2716230076       -9.2339547124
 H        -4.1462435031        3.9796077475       -8.4611270458
 H        -2.4327634195        3.6771488493       -8.3267661369
 H        -2.7507472146        2.1315747224      -10.3984440717
 H        -4.4271717895        2.1339128006       -9.9878992831
 H        -5.2939619096       -1.6061329568       -7.0465796180
 H        -4.0110161470       -0.3597776148       -6.4693230571
 H        -4.5746176297       -2.1397213505       -4.8259257773
 H        -2.9387057576       -1.8320125418       -5.0718261965
 H         0.3958775126       -3.4898549730       -6.2658561687
 H        -0.6465613741       -2.8275587978       -7.4369181222
 H         1.1741775178       -3.7603303576       -8.8034146781
 H        -0.1350770063       -5.0644904741       -8.7565641538
 H         0.4431624632       -8.0870736895       -7.7821875927
 H         1.5420388163       -9.1251543171       -8.3571665163
 H        -0.4654360123      -10.1140340228       -8.7241063611
 H        -0.1202627455       -9.5314398224      -10.4558994392
 H        -4.1093514385      -10.6330503731       -8.9695312480
 H        -4.9197031698      -10.3781925481      -10.4718348333
 H        -6.7281960642      -10.6576406832       -8.6464630408
 H        -6.5891309915       -8.9824509581       -9.1749078675
 H        -8.3479209169      -10.3130746923       -6.7551812985
 H        -8.6917589791      -11.6801515365       -5.6012387020
 H       -10.1434835472      -12.4240729753       -7.1671582069
 H        -8.7218989747      -13.1913530234       -7.6430475231
 H       -12.8600987164       -9.6044041974       -8.1976645017
 H       -12.5594905414       -9.0660112599       -9.8882065639
 H       -11.1903404479       -7.0598644079       -8.6667039008
 H       -12.2098395895       -7.5020605531       -7.3400302213
 H       -17.6356188822       -6.9185426415       -8.2487981851
 H       -17.1391357513       -8.2256797564       -9.1585232985
 H       -16.7773996687       -6.4824076651       -9.7432844563
 H       -13.3922148990       -4.8304492852       -6.5385965370
 H       -13.5873027601       -6.4423272866       -6.1813189258
 H       -15.0201894381       -5.5765609996       -6.1162621751
 H       -16.0425449807       -4.4334841918       -8.4688815656
 H       -15.1362854230       -4.8295039750       -9.9057028972
 H       -14.4523019096       -3.8856553003       -8.5570540728
 H       -11.0440443489       -9.9861954540      -11.3895339807
 H       -11.1238106496      -11.6899121554      -11.6504109370
 H        -9.5035490166      -10.8342050261      -11.3654099852
 H       -12.0489247898      -12.1439182846       -8.1555622569
 H       -12.1874947643      -12.7611168062       -9.7454882671
 H       -12.9283950201      -11.2363029821       -9.4555105476
 H        -3.9549622216      -11.3578914196       -7.2342916916
 H        -4.2832966630      -12.3120430341       -5.7338433368
 H        -3.7099274524      -10.8190827561       -5.4477430479
 H        -5.3158130155       -9.7823800861       -4.3065409499
 H        -6.2265488035      -11.2017000074       -4.0599345485
 H        -7.0956527856       -9.8247630770       -4.5533982703
 H        -1.2491202009       -7.4014065006      -11.4537984841
 H        -2.4957152472       -6.5693301724      -10.5186730507
 H        -2.9561731871       -7.0992754554      -12.0170712747
 H        -1.8202737249       -9.7952251925      -12.1407645602
 H        -3.4434474767       -9.9658552462      -11.9382836950
 H        -2.6138826624      -10.9073888229      -10.8487876139
 H         2.9071625234       -5.3308606767      -10.5722926472
 H         4.2621125083       -5.5136632596       -9.4389335385
 H         3.1943784822       -4.2372257688       -9.2357489002
 H         3.0047189492       -7.7774513171       -7.1821225302
 H         4.1386089409       -6.6136065257       -7.2364093304
 H         4.0587969524       -7.7382547738       -8.5287175208
 H        -0.5299622085       -3.9032279002       -3.8214776138
 H        -2.2372339900       -3.4156108394       -3.3649194882
 H        -1.2198739411       -2.4773728510       -4.5040545215
 H        -1.4811784487       -6.4231859263       -4.7960875941
 H        -3.2078696428       -6.4563525579       -5.1166804724
 H        -2.7579324090       -5.7928358848       -3.6551891035
 H        -5.3968909923        0.6578295271       -9.8017581365
 H        -5.7739425168       -0.7092646172       -8.7365337532
 H        -5.4216411702       -0.9645892701      -10.4133538607
 H        -1.7053874305       -0.4848547946      -10.2834218976
 H        -3.1297147737       -0.3153316094      -11.3806019429
 H        -2.7368940619       -1.9497424532      -10.6294309407
 H        -1.8145954639        5.3839551128       -7.4512280137
 H        -3.4782638043        5.8098418237       -7.2696581334
 H        -1.9601481245        6.9748297092       -7.2631012649
 H        -4.5444008474        6.8423100171       -9.2949325102
 H        -3.5753453159        7.5168818775      -10.7109330041
 H        -3.2800470334        8.1914336427       -9.2232244872
 H         5.5796272520        5.8093883918       -9.5632266312
 H         4.7414740993        6.1894263719       -8.1524068464
 H         5.9453484777        7.3692064678       -8.7651104927
 H         4.5768515256        9.3563041270       -9.6956295516
 H         3.1791772756        8.9842295656       -8.5177865230
 H         2.9902473563        9.1786488093      -10.3192682493
 H         5.8123460901        3.8397750532      -16.5321436057
 H         4.4032226836        3.5288923004      -17.3875800514
 H         4.8093481821        2.5633596313      -15.8952208789
 H         5.0632800396        6.7719701121      -15.8655835571
 H         3.3321655419        6.6055314862      -16.3270771104
 H         4.6893510168        5.8833215096      -17.3463732794
 H        -3.0076665249        3.3149812334      -12.6296207663
 H        -2.5238331537        1.6148872140      -13.2345835921
 H        -3.5888975860        2.6648749903      -14.1615678682
 H        -1.2672649052        1.3854813554      -15.4887654598
 H        -0.7250735492        2.8243680296      -16.4482256038
 H        -2.4564601186        2.4513282886      -16.2721633442
 H        -4.6429743733        9.1877880524      -16.6114885490
 H        -2.9489286493        9.7706540249      -17.1272643737
 H        -4.0410436248       10.6365301565      -15.9671179149
 H        -1.4228640710        9.5926073143      -13.7353690863
 H        -2.2705210114       11.0159850108      -14.3397356981
 H        -1.1229376009       10.2645643048      -15.4732584109
 Na       -2.2673497420        6.1883861215      -12.6836074207
 Na       -3.7939265975       -6.8884660803       -7.2014694271
