232

 C        -4.9542513373        9.9901583321      -13.6951993569
 C        -3.9957855889        8.8061535969      -13.9169499065
 O        -3.8308816042        7.9604857161      -13.0902969802
 C        -2.7940546870        9.1389309286      -14.9770758726
 C        -1.9821445779        7.7524823414      -15.3485714730
 O        -1.1284133597        7.3747783474      -14.5413900048
 C        -2.3913681365        6.8574966015      -16.5232676814
 C        -1.7875519267        5.4436874216      -16.3437214127
 C        -2.4401225223        4.6604760598      -15.1691888869
 O        -3.3892037213        5.0534281896      -14.5147461047
 C        -1.6122717465        3.3066316614      -14.7557228757
 C        -0.3791176157        3.8108072148      -13.8755078462
 O        -0.4308904899        4.7832076309      -13.1546660668
 C         0.8183305360        2.8967796845      -13.9119634949
 C         2.2136397460        3.5033744377      -13.9023159201
 C         2.5736438928        4.2302648348      -15.2225364736
 O         1.7721627267        4.5781004762      -15.9979001386
 C         4.0944338018        4.5388421774      -15.5021734742
 C         4.9802817732        4.7809117716      -14.1423989202
 O         5.6570915855        3.9057792912      -13.6221853598
 C         4.9761770594        6.1824624859      -13.5817804973
 C         4.8851066819        6.1410609595      -12.1225542763
 C         3.9807014034        7.2455685096      -11.4608827003
 O         3.1219840136        7.8385915126      -12.0425737292
 C         3.9967409980        7.3789989328       -9.8588584305
 C         2.6850201491        6.6144781908       -9.6145174552
 O         2.8311121877        5.4125241377       -9.5810870913
 C         1.2659450791        7.2000121410       -9.7582656620
 C         0.1466501594        6.4471253814       -9.1247083059
 C        -1.1437754918        6.5299730085       -9.8904320486
 O        -1.0968963299        7.1082993104      -10.9422722385
 C        -2.4546481708        6.1807080268       -9.2092989007
 C        -2.9628004842        4.6882600753       -9.9075032311
 O        -3.0586466802        4.5484290082      -11.0956303388
 C        -3.3301372653        3.4935214905       -9.0238789562
 C        -3.5127461204        2.1389256178       -9.8762068682
 C        -3.4412477612        0.9694644960       -8.8102959863
 O        -3.0730561576        1.3093434160       -7.7408905041
 C        -3.7750481027       -0.4706216961       -9.1748512420
 C        -3.4183395733       -1.4953317199       -7.9888474925
 O        -2.4878725990       -2.2144668896       -8.1178292671
 C        -4.2555578660       -1.4413539044       -6.7275579786
 C        -3.7683162870       -2.2755427406       -5.5095826027
 C        -3.6381744400       -3.7819675489       -5.6704553853
 O        -4.4437367415       -4.4702093243       -6.2605746635
 C        -2.2279846429       -4.4468425178       -5.1634793065
 C        -1.5067121152       -4.5828418646       -6.6466843058
 O        -1.9408531318       -5.3755644529       -7.4743602431
 C        -0.2084464772       -3.7810521823       -6.8626055616
 C         0.5454854543       -4.2897833349       -8.0489712689
 C         1.3326409729       -5.5613344275       -7.6825492011
 O         1.1814313133       -5.9981808097       -6.5348243327
 C         2.3457845154       -6.2638290838       -8.5937758486
 C         1.3807590563       -7.1752546973       -9.4912517800
 O         0.9821528378       -6.7384137609      -10.5673296860
 C         0.9277791133       -8.4504195696       -8.8145501560
 C        -0.2379029307       -9.1100255813       -9.5815507773
 C        -1.6219763534       -8.6052333184       -9.2540732698
 O        -2.0598708420       -8.2677276689       -8.1550370419
 C        -2.6872227569       -8.6222991861      -10.3888590323
 C        -4.0997505844       -8.4604202072       -9.6988262981
 O        -4.5209406900       -7.4340890836       -9.3123054031
 C        -4.9282151485       -9.7763611813       -9.4952416651
 C        -6.0946442821       -9.6519443096       -8.5535374469
 C        -5.6719691854       -9.4981179823       -7.0822774407
 O        -5.0918148336       -8.5443879640       -6.6487773851
 C        -5.8299217149      -10.7243190015       -6.0938131180
 C        -6.8582772535      -11.8501266023       -6.6434166698
 O        -6.4264433295      -12.9485663847       -6.7688602671
 C        -8.3955950961      -11.4216361057       -6.8276353963
 C        -9.2295341017      -12.3764930835       -7.7114830595
 C        -9.3195422498      -11.7518131118       -9.1919454324
 O        -8.3290237300      -11.6376811269       -9.9021787821
 C       -10.8424353223      -11.1659850373       -9.6176816100
 C       -10.9273493979       -9.7809495160       -8.9299404703
 O       -10.0738109252       -9.2865124314       -8.2548341517
 C       -12.2805793692       -8.8072303957       -8.9835554318
 C       -12.1831009465       -7.4764424646       -8.3606482857
 C       -13.2273902879       -6.4469855143       -8.9026622196
 O       -12.9617985715       -5.7965188843       -9.8886375905
 C       -14.4135486414       -6.0313365536       -7.9934545040
 C       -15.4517255925       -7.1667966754       -7.9187838928
 O       -15.2658957670       -8.0789813319       -7.1290446146
 C       -16.7214292773       -7.2836642393       -8.7853337710
 C       -14.0156508733       -5.8617333434       -6.5072295187
 C       -15.0831781987       -4.8091954040       -8.5123204938
 C       -10.9972353631      -10.8691577857      -11.1181290964
 C       -11.9948029303      -12.0439279900       -9.1515186026
 C        -4.3921304478      -11.4352495755       -6.0140162396
 C        -6.1814444512      -10.1529009615       -4.6326733901
 C        -2.3038188109       -7.3695801652      -11.2318886133
 C        -2.4935834197       -9.9061098992      -11.3118119282
 C         3.1888435562       -5.2832647151       -9.5546381092
 C         3.3181274909       -7.0518653259       -7.7654375310
 C        -1.3718678567       -3.6252384665       -4.2124772431
 C        -2.3936574776       -5.8593982209       -4.6698484177
 C        -5.2217422827       -0.8008820240       -9.7236981678
 C        -2.8948251135       -0.7916909827      -10.4908381858
 C        -2.3963898482        5.9479194379       -7.7274793658
 C        -3.4919687665        7.3227799787       -9.5219866767
 C         5.1345295870        6.7500876748       -8.9386998363
 C         4.0416959171        8.9374167305       -9.3819351964
 C         4.9032746031        3.3853971196      -16.3157458102
 C         4.0823168179        5.8509427732      -16.3902435644
 C        -2.6758931155        2.5801138873      -13.8217687917
 C        -1.2310183238        2.3848808454      -15.9793828852
 C        -3.2766216408        9.6854436991      -16.3694752502
 C        -1.8734675818       10.1163629309      -14.3341201544
 H        -5.6829615917       10.1755379074      -14.5196848945
 H        -4.4329249766       10.9444267395      -13.6527697474
 H        -5.3670002092       10.0187405663      -12.6885869983
 H        -2.1191175347        7.3961699041      -17.4045909207
 H        -3.4954883399        6.8193729706      -16.4831332690
 H        -0.6893807249        5.4885672290      -16.0734066850
 H        -1.7712656821        4.9926268481      -17.2733898675
 H         0.7667090919        2.2431839312      -14.7836459175
 H         0.5925502479        2.1644341612      -13.1675672424
 H         3.0052921592        2.7236711181      -13.9057887938
 H         2.3466818379        4.1360197898      -13.0529239073
 H         4.1695758896        6.7833449473      -13.9865946814
 H         5.9024773652        6.6242858653      -13.8196914853
 H         5.8925714583        6.1506390042      -11.7367676202
 H         4.3940997640        5.2450588148      -11.6497184085
 H         1.1477697309        7.2577481814      -10.8437456151
 H         1.3302056565        8.1972846233       -9.3876388709
 H        -0.0084485107        6.8516276721       -8.1061054368
 H         0.4417180401        5.3389677231       -9.0151472086
 H        -4.2736949995        3.8416030505       -8.5435114874
 H        -2.7087049028        3.3605123087       -8.1492591182
 H        -2.7379957334        2.0970299470      -10.6071946187
 H        -4.5137666749        2.1154303648      -10.3889023512
 H        -5.2265202642       -1.8742517866       -7.0890707797
 H        -4.3226652229       -0.4910720536       -6.4372593040
 H        -4.5497101253       -2.2452678281       -4.6992164630
 H        -2.9127077623       -1.8922289594       -5.0198871136
 H         0.4453173590       -3.9357880017       -5.9131831195
 H        -0.4306081053       -2.6915922053       -6.9600078538
 H         1.2697759389       -3.5480659979       -8.3126719495
 H        -0.1863177415       -4.6435160004       -8.7963209435
 H         0.6142601422       -8.1883636282       -7.6858194460
 H         1.7902286168       -9.1685923394       -8.6618873159
 H        -0.2628532576      -10.1605248452       -9.3867960716
 H        -0.1273440292       -8.9921205925      -10.6644936347
 H        -4.5019916950      -10.7216020151       -9.1687747737
 H        -5.4018105864      -10.1039341511      -10.4809951469
 H        -6.8008387470      -10.5339612880       -8.6627260097
 H        -6.6796991296       -8.6568758857       -8.7746858044
 H        -8.5223682617      -10.4629367789       -7.3222595797
 H        -8.6742285804      -11.4174912856       -5.7588314197
 H       -10.1306520961      -12.6423370592       -7.1809576187
 H        -8.6625146743      -13.3291841583       -7.8935779936
 H       -12.9384772011       -9.4861165122       -8.4588068625
 H       -12.3837506670       -8.7050927394      -10.1326967079
 H       -11.1687732093       -7.1553199065       -8.5901059329
 H       -12.2884346321       -7.7833936936       -7.2993843588
 H       -17.7010820555       -7.2715175943       -8.2814389424
 H       -16.6101441816       -8.2916678929       -9.2360109583
 H       -16.7330039806       -6.4992971524       -9.5381521230
 H       -13.0971426323       -5.3570647861       -6.4232977428
 H       -13.8844718641       -6.7674596036       -5.9315229915
 H       -14.8817036894       -5.4248442698       -5.9827400916
 H       -16.0310950665       -4.5759139575       -8.0099468085
 H       -15.4571367692       -4.9841911115       -9.4416348964
 H       -14.4793650078       -3.8622212037       -8.5101863768
 H       -12.0407051502      -10.4609843478      -11.2757256682
 H       -11.1689492285      -11.7966646814      -11.6163026812
 H       -10.1576342213      -10.3060580352      -11.5913047517
 H       -12.3181598987      -11.8837782868       -8.1189213249
 H       -11.6285105249      -13.1196974987       -9.2044044222
 H       -12.8318679458      -11.9244061107       -9.8013516395
 H        -4.2867061486      -12.0129659097       -6.8924374662
 H        -4.1610765769      -11.9177957800       -5.0967693074
 H        -3.6013164456      -10.7608798390       -6.0218873961
 H        -5.6568647271       -9.1785020683       -4.5218961781
 H        -5.9004348536      -10.6613798710       -3.7100448981
 H        -7.2177143742       -9.9825363467       -4.5290308769
 H        -1.2675235209       -7.1969048250      -11.2466092415
 H        -2.7668486882       -6.4192437414      -10.9069978603
 H        -2.6773608452       -7.4136782806      -12.2635375368
 H        -1.5685080999       -9.8897963287      -11.8410400782
 H        -3.2501036365      -10.1048868376      -12.1601149743
 H        -2.4893976719      -10.8488822977      -10.7261919911
 H         2.8463633044       -5.4796694186      -10.5370068294
 H         4.2719652194       -5.3988035679       -9.4445040734
 H         2.9740515056       -4.2461898679       -9.4938825395
 H         2.8416099450       -7.7179852114       -7.0147049927
 H         3.9548497652       -6.3972165159       -7.1530152712
 H         3.9609092030       -7.7115104607       -8.2876630736
 H        -0.4534675012       -4.1956093296       -3.8899716304
 H        -1.9147300665       -3.3634195692       -3.3387408330
 H        -1.0801692200       -2.6885185582       -4.6620678296
 H        -1.4516578612       -6.4003569854       -4.6017223834
 H        -3.0960970846       -6.3387591197       -5.3586266641
 H        -3.0048459011       -5.6601147125       -3.7374716996
 H        -5.6196059764        0.1077606927      -10.2176791023
 H        -5.9553343696       -0.9831141349       -8.9021847887
 H        -5.1921171036       -1.7347577315      -10.3226115294
 H        -1.9207917257       -1.0569858232      -10.3014217331
 H        -2.9061884819        0.0732396709      -11.1367513970
 H        -3.4048433281       -1.5483663844      -11.0838567219
 H        -1.6092326795        5.2349169936       -7.3643325400
 H        -3.3102999635        5.4993124490       -7.4272188756
 H        -2.0890870250        6.8540876768       -7.2830614333
 H        -4.5607826266        6.9333622447       -9.4474710597
 H        -3.2668543596        7.6139898257      -10.5531347605
 H        -3.2843408130        8.2235564862       -9.0077570792
 H         5.0429469130        5.6500846953       -9.0117371952
 H         5.1326950760        7.1045737335       -7.8778701801
 H         6.1014491569        6.8897341351       -9.3772196008
 H         5.1514424694        9.2905821882       -9.3942422917
 H         3.5691062506        8.9947530518       -8.4203109700
 H         3.5713060441        9.5562367514      -10.1750867141
 H         5.8718826920        3.7387363895      -16.6840428044
 H         4.2800507080        3.1838999283      -17.2371851787
 H         4.9098895676        2.4963199181      -15.6606792755
 H         5.0646116623        5.9695656858      -16.7317127721
 H         3.7369504284        6.6643041645      -15.8399056431
 H         3.4102117142        5.7391895965      -17.2029982033
 H        -2.8698336863        3.2521833129      -12.9692990273
 H        -2.3104381053        1.6254850300      -13.4908825610
 H        -3.6089572828        2.3618173034      -14.3787833874
 H        -1.0494938860        1.3641118420      -15.6461222706
 H        -0.4182426057        2.7806780910      -16.5848481123
 H        -2.1133720071        2.2911511198      -16.5567163955
 H        -4.0362825550        8.9607628428      -16.6339235688
 H        -2.4805867875        9.7272448066      -17.0353283696
 H        -3.7903970789       10.5859471115      -16.3432146636
 H        -1.5302187529        9.6816356703      -13.4039132833
 H        -2.4915142037       11.0364076049      -14.1246530896
 H        -1.1331991006       10.3272028277      -15.1101826305
 Na       -2.2576531645        6.4623844581      -12.6471620903
 Na       -3.8910423298       -6.5116264248       -7.5396160823
