232

 C       -21.3842018124       -7.3514449101       -2.0040353332
 C       -20.6827165510       -6.1809210953       -2.6453083593
 O       -20.0090951140       -5.4037188080       -1.9777595450
 C       -21.0816672406       -5.9271942799       -4.2418950531
 C       -19.8331347347       -5.1573328914       -4.9439468062
 O       -19.9032190021       -3.9210003221       -5.0300843989
 C       -18.7094394310       -5.9127353565       -5.6267702424
 C       -17.5658816340       -5.0050411176       -6.0875272964
 C       -17.2004299672       -4.0597807686       -4.9445313012
 O       -17.1079387975       -4.5172894854       -3.8154653458
 C       -16.7708761763       -2.5750947968       -5.3319644978
 C       -16.5875142649       -2.0346807754       -3.9040731024
 O       -17.5348211743       -1.6087261419       -3.2646444353
 C       -15.1829183406       -2.1930104844       -3.2055643618
 C       -15.3658753171       -2.0265044911       -1.7191266171
 C       -16.0788362462       -3.1247761635       -0.8697443351
 O       -17.1767407067       -3.6356021074       -1.0544199041
 C       -15.2230763997       -3.5725462121        0.4079993683
 C       -14.0885332925       -4.5783755515       -0.0088707893
 O       -13.0151451121       -4.5615612279        0.4431944725
 C       -14.5046869984       -5.7668076274       -0.9293590076
 C       -13.2623709912       -6.5577790432       -1.3795728868
 C       -13.0317264033       -6.4810968129       -2.9084700257
 O       -13.5082344641       -5.6080649694       -3.6263317804
 C       -11.8746022236       -7.3404226329       -3.5011381407
 C       -10.5807596878       -6.3939569159       -3.4845049969
 O       -10.3861609393       -5.6120688128       -2.5998992828
 C        -9.4729281362       -6.8401845256       -4.6194754723
 C        -8.0469554700       -6.8809544696       -4.1117675316
 C        -7.2840706854       -5.6456365839       -4.4708811285
 O        -7.1491844864       -5.3861112217       -5.6614672492
 C        -6.5659225137       -4.7795838645       -3.3589017725
 C        -5.0259197354       -5.2629252073       -3.2975290211
 O        -4.4023482093       -4.9301068977       -2.3133556625
 C        -4.4303002060       -6.0232212157       -4.4204923845
 C        -2.9060752136       -6.0994686757       -4.4132874380
 C        -2.1788389882       -4.7729648658       -4.7254568686
 O        -2.7400581259       -3.7609607524       -5.1077107982
 C        -0.6636897789       -4.8067776612       -4.6695847313
 C        -0.3988448502       -5.1059095487       -6.2648298883
 O        -0.5467698444       -6.2478333773       -6.6503710260
 C        -0.0139720585       -4.0150639823       -7.2375737321
 C        -0.1253293961       -4.3777498216       -8.6674966339
 C         1.0418264602       -3.9700256802       -9.5527102916
 O         2.0300680305       -3.4360498813       -9.0594015410
 C         1.2810960663       -4.4409087231      -11.0671584555
 C         1.7178159129       -3.1342502320      -11.7704016970
 O         0.8177392309       -2.4783249473      -12.2961758302
 C         3.2655683529       -2.5918177884      -11.8610331030
 C         3.4034449160       -1.9275009472      -13.2869160882
 C         4.8563605223       -1.3515945507      -13.4413680678
 O         5.3072752626       -0.7996597867      -12.4643372117
 C         5.5177110716       -1.1179122940      -14.8255357204
 C         4.9866754907        0.3768722683      -15.2236713115
 O         4.6911455911        0.4816955297      -16.4183093591
 C         4.7643076448        1.5232865039      -14.1693981281
 C         6.0024796858        2.0550046844      -13.4641755104
 C         7.0799638083        2.5528967036      -14.4748499670
 O         7.2502977757        1.8773809185      -15.4646316755
 C         7.8875010432        3.9006966290      -14.2275228339
 C         6.8678817199        5.0678940842      -14.4003479703
 O         6.0498479174        5.0724218433      -13.5035652938
 C         7.0071131407        6.2712012684      -15.3203550520
 C         5.7401366699        6.5493694916      -16.1476804089
 C         5.5129159610        5.4505146386      -17.1368277386
 O         5.9505641053        4.3365852135      -16.8910495049
 C         4.5747626818        5.7030540426      -18.4195012544
 C         5.6297341226        6.2281320276      -19.4691961721
 O         5.9509608488        7.3936083763      -19.3915444849
 C         6.3573789954        5.3361371868      -20.4835633877
 C         7.8043405166        5.7757554434      -20.8299970466
 C         8.1593412300        5.3452323533      -22.3619341819
 O         7.3981994213        5.4405768700      -23.2722731258
 C         9.6676109395        4.8605080551      -22.5464234973
 C         9.6724142697        3.3060024172      -22.1165633352
 O         9.3789467713        2.5365762810      -22.9324588564
 C        10.0526307924        2.8987641051      -20.6449558464
 C         9.6243046998        1.4519810936      -20.3374234891
 C         8.1048521246        1.3916132417      -20.0007378759
 O         7.5401705563        2.4273557064      -19.6827876862
 C         7.4237691073        0.0269935177      -20.0863976471
 C         5.8769115534        0.1851506901      -20.0822438700
 O         5.3425100231        0.8929740798      -19.2847647580
 C         5.0944549551       -0.8236450142      -20.9558161000
 C         7.9741536761       -0.7647511815      -21.2452113664
 C         7.8015292951       -0.6178405216      -18.6366031544
 C        10.0454626172        4.9722558591      -24.1087404270
 C        10.6024864330        5.7937449268      -21.7901065274
 C         3.8236220276        4.3721640372      -18.8163616428
 C         3.4674768788        6.8202040252      -18.1843981480
 C         8.6265014384        3.9044945403      -12.8625642174
 C         9.0883283164        3.9189673738      -15.3476223423
 C         7.0839284342       -0.9575603916      -14.6750761919
 C         5.1134375456       -2.0708891944      -15.9200153460
 C         2.3107700433       -5.5942934374      -11.1877265165
 C        -0.1013359620       -4.8836150741      -11.7338884442
 C        -0.0853474969       -3.4731640905       -4.1511631112
 C        -0.0644102547       -5.9515133960       -3.8507153592
 C        -6.6001699118       -3.3592419650       -3.9126270666
 C        -7.1762964564       -4.8145765933       -1.9381334356
 C       -11.4417922080       -8.4905073226       -2.6177387842
 C       -12.2874305567       -7.8447862205       -4.8832609558
 C       -14.4771449035       -2.3645665761        1.1130931101
 C       -16.2553567622       -4.2286276970        1.3455267963
 C       -15.5038121760       -2.4820053616       -6.1316278541
 C       -17.9817327968       -1.8226782243       -5.9997278650
 C       -21.3671340978       -7.2790628639       -4.9625005079
 C       -22.3605595106       -5.0208427833       -4.2326493924
 H       -22.0365983155       -7.8427566903       -2.7422722084
 H       -21.9805930053       -6.9549697314       -1.1317547813
 H       -20.5777641890       -8.0281786448       -1.8005750850
 H       -19.3101587951       -6.3457903152       -6.4341908479
 H       -18.3487194572       -6.6607247869       -4.9477953615
 H       -17.8787580570       -4.4509250329       -6.9678006488
 H       -16.6563391075       -5.5446321822       -6.3589198335
 H       -14.4747736170       -1.4886889392       -3.6090643407
 H       -14.8547248918       -3.2479761099       -3.5091998337
 H       -15.8189975472       -1.1388519932       -1.3866154084
 H       -14.3509541670       -2.0021227091       -1.2229731540
 H       -15.1354751425       -5.5197311724       -1.7756292357
 H       -15.1661074493       -6.3804195124       -0.3215441444
 H       -13.3776278247       -7.5985804006       -1.1183570810
 H       -12.3761725761       -6.0966932756       -0.8893566478
 H        -9.5754223496       -6.1311835514       -5.4855876795
 H        -9.7603222464       -7.7972883779       -5.0107975778
 H        -7.4526162431       -7.6412589842       -4.6481738374
 H        -8.1693243746       -7.2430364512       -3.1086693811
 H        -4.7541936890       -5.6025399127       -5.3548481993
 H        -4.8171856107       -7.0394471502       -4.3797786485
 H        -2.5680429905       -6.8441776416       -5.1561080552
 H        -2.6106866813       -6.2904660202       -3.3088828250
 H         1.0861483515       -3.7277538840       -7.1084144837
 H        -0.6352464639       -3.2040294509       -7.0320125712
 H        -1.0783673098       -4.0196720334       -9.0846700951
 H        -0.0352470478       -5.4403069002       -8.8314412661
 H         3.8525918744       -3.5199692335      -11.7328673060
 H         3.3377891558       -1.8227366042      -11.0877902289
 H         2.7078598068       -1.0237360055      -13.3878693319
 H         3.1464489099       -2.5463220925      -14.1170390749
 H         4.0451166302        1.2311794495      -13.3674784794
 H         4.3935356328        2.3878124851      -14.7004789753
 H         6.5189894533        1.2614593703      -12.8590607540
 H         5.6831334444        2.8884909009      -12.7881412888
 H         7.7658760372        6.1605241942      -16.1572468971
 H         7.2919042042        7.2441012193      -14.7641287699
 H         5.8867953421        7.5503130670      -16.6311951568
 H         4.8579729747        6.6469445215      -15.4203482693
 H         5.8048002659        5.3292187226      -21.4407488212
 H         6.3132020543        4.3157638967      -20.1245756143
 H         8.5898249681        5.3632902657      -20.1633076372
 H         7.9218230528        6.8326027839      -20.5293220263
 H         9.6440116348        3.6154899362      -19.9495378417
 H        11.0933007358        3.0769152267      -20.4663314262
 H        10.3086977097        1.1530373413      -19.5233676152
 H         9.7897544119        0.8730798025      -21.2289411133
 H         5.3092284430       -1.8934174106      -20.7935690583
 H         5.1670602830       -0.5821283641      -22.0056295866
 H         4.0029778799       -0.6374522210      -20.7475961627
 H         7.6476834973       -1.8137731161      -21.4377133172
 H         9.0036094816       -1.0012706731      -21.1203620205
 H         7.9442833005       -0.2338992322      -22.2095985461
 H         7.3934834115       -1.6475180374      -18.5264163056
 H         7.2922894057        0.0046890822      -17.9264359916
 H         8.8769351578       -0.6949687376      -18.3485893601
 H         9.4471595628        5.7294860955      -24.5280360930
 H         9.8264289475        4.0478525436      -24.5736641633
 H        11.1534846804        5.0886464316      -24.2752813985
 H        11.5966866940        5.7919440649      -22.1745216915
 H        10.6296354951        5.5381142285      -20.7222205526
 H        10.2684521909        6.7744209372      -21.9768253070
 H         3.1788413263        3.9962873922      -18.0770699927
 H         4.5444570049        3.5189804895      -18.9769283453
 H         3.2885912498        4.4126517504      -19.7502131692
 H         3.9970828807        7.7345371961      -17.9426169808
 H         2.8448918380        6.6430628915      -17.3214851431
 H         2.9496709545        6.9348616937      -19.1594355945
 H         9.1091194441        4.8610610302      -12.6773368270
 H         9.3080862774        3.0545297654      -12.8523077851
 H         7.8241823947        3.8522180947      -12.1762733902
 H         9.7032708565        3.0609158505      -15.1437194670
 H         9.6623706626        4.8046356996      -15.1529267495
 H         8.7840749996        3.9152287981      -16.3719164524
 H         7.3452049818       -1.7883521036      -14.0131895894
 H         7.3747243603       -0.0616087380      -14.2135034192
 H         7.5353129003       -0.9366517401      -15.7103396229
 H         5.2382722994       -3.0624750417      -15.5347219890
 H         5.8673977614       -1.9941343316      -16.7730549596
 H         4.1987091343       -1.9177150673      -16.4546280185
 H         2.0354571733       -6.6182880490      -10.9339881649
 H         3.2813784561       -5.3779331116      -10.6157909446
 H         2.6433151390       -5.4748820054      -12.2285657536
 H        -0.9833589575       -4.3214065541      -11.4548330555
 H        -0.3221644927       -5.9036534918      -11.2863828213
 H        -0.0347922129       -4.9926263598      -12.8135570161
 H        -0.4990123904       -3.4577121879       -3.1536228055
 H        -0.3793767322       -2.5488762620       -4.6684678828
 H         0.9877996671       -3.6895298270       -4.0434139383
 H        -0.6210543346       -6.8747882527       -3.9648472293
 H        -0.1323190328       -5.5760679796       -2.8025619343
 H         0.9774723634       -6.0348684324       -4.2241875050
 H        -6.1973204685       -3.3491429066       -4.9426412857
 H        -5.9805727358       -2.7219876371       -3.3316816343
 H        -7.6386100183       -3.0676827333       -3.9280131450
 H        -8.0956736279       -4.2662608215       -1.9248040359
 H        -6.4760689581       -4.2847962895       -1.3098116198
 H        -7.3355195531       -5.8471061186       -1.4937634900
 H       -12.2542177498       -9.2515298272       -2.5066374624
 H       -11.4708883822       -8.1297688861       -1.5853138023
 H       -10.4957926927       -8.9050840312       -2.8312236253
 H       -13.3039965894       -8.0088982427       -4.8069979620
 H       -11.6263467391       -8.6530359017       -5.2663517261
 H       -12.2886585687       -6.9735343412       -5.5955137326
 H       -14.3819507398       -2.6106656658        2.2314413720
 H       -14.9171274649       -1.3378464331        0.9448489099
 H       -13.4111019184       -2.3921005624        0.8197806596
 H       -15.8477815870       -5.0432773234        1.9873503034
 H       -17.0668847274       -4.7561037429        0.8492631023
 H       -16.5331392145       -3.3680417109        1.9791228932
 H       -15.4781376863       -3.2322665526       -6.9103363930
 H       -14.5748742380       -2.5380753058       -5.5829829183
 H       -15.5195350275       -1.5569551529       -6.7934028807
 H       -18.4514195203       -1.2580280447       -5.2714755155
 H       -18.5590095717       -2.5297727904       -6.5948581023
 H       -17.5190889302       -1.0648720396       -6.5851944845
 H       -20.6974220159       -8.0568159003       -4.6158072262
 H       -21.1731148784       -7.1232269138       -5.9620404480
 H       -22.4571477897       -7.5520929256       -4.9302464767
 H       -22.3027519792       -4.1433502965       -4.9016729348
 H       -22.4275431212       -4.5887955347       -3.3031125338
 H       -23.1505809230       -5.7376628445       -4.4033866389
 Na      -18.9798872469       -3.5746492035       -2.7333292473
 Na        6.0838597801        2.1347253677      -17.5503137297
