232

 C        -4.5370392508        9.8522525817      -13.9728135660
 C        -3.3742516214        8.8732996384      -14.0042942439
 O        -3.4140182666        7.8522955522      -13.3422171031
 C        -2.1913211651        9.2140605263      -14.9957324865
 C        -1.5850201917        7.7906919064      -15.3617203345
 O        -0.9332509384        7.1805620302      -14.5802974143
 C        -2.3230881126        6.9137948738      -16.5219403328
 C        -1.5978336231        5.5367629739      -16.6729658922
 C        -2.1128018075        4.5516076012      -15.5861396458
 O        -2.9575719801        4.8575797824      -14.7797034533
 C        -1.4962505261        3.1768264172      -15.3972263680
 C        -0.3567986977        3.4375786651      -14.2347984981
 O        -0.4900064129        4.3702411986      -13.4883921265
 C         0.6823450630        2.3881401522      -14.0187933754
 C         2.0195873168        3.1861723732      -13.8450409140
 C         2.2643704289        4.1015897549      -15.0421739204
 O         1.3353895725        4.5628010561      -15.6652892904
 C         3.7848068649        4.3723942493      -15.5391229367
 C         4.5395528818        4.8077281637      -14.2680335360
 O         5.3489300731        4.0761685365      -13.8192049133
 C         3.9998275150        6.0867591433      -13.5840175992
 C         4.5689034069        6.3554943502      -12.2124568707
 C         4.0778403047        7.6908653033      -11.4115150691
 O         3.8322935460        8.7079662319      -11.9619079089
 C         3.9647952963        7.5081131604       -9.8524518075
 C         2.6481044604        6.7513870155       -9.4819253533
 O         2.7035748229        5.5662331353       -9.1840897599
 C         1.2797266599        7.5088511785       -9.4476954730
 C         0.2953994202        6.4919996555       -8.8052863103
 C        -0.9420262237        6.3405588388       -9.7196894076
 O        -0.7894039705        6.5980191904      -10.9007401024
 C        -2.2543936796        5.8463596398       -9.0415656564
 C        -2.6423620122        4.5257107781       -9.7696922153
 O        -2.5595675988        4.4298584478      -10.9411917489
 C        -3.1788082175        3.3842692794       -8.9770427054
 C        -3.3630502005        2.0624766492       -9.7365730058
 C        -3.9770864454        0.9969541127       -8.7734690520
 O        -4.2780588729        1.3511148095       -7.6413718024
 C        -4.0721795334       -0.4641813172       -9.2762597121
 C        -3.7121547953       -1.3692872344       -7.9818602469
 O        -2.6258150155       -1.8887536834       -8.0480244180
 C        -4.7407915176       -1.4430712113       -6.7833636207
 C        -4.3354432935       -2.4232255751       -5.6791537585
 C        -3.7488013812       -3.8194780038       -6.1456007458
 O        -4.2641093412       -4.5434072944       -6.9956980794
 C        -2.4403843558       -4.2613628562       -5.4625050051
 C        -1.3539124044       -4.4767045498       -6.5771427017
 O        -1.5523208233       -5.1732008836       -7.5639834430
 C        -0.0265328737       -3.7136677403       -6.4510223080
 C         0.9019783402       -4.1349046708       -7.6111216518
 C         1.2720398251       -5.6534884863       -7.5399753377
 O         0.8851579127       -6.3095210029       -6.5904212925
 C         2.1408060957       -6.3612565855       -8.6579984992
 C         1.1019346291       -7.1585163926       -9.3702082180
 O         0.6500902541       -6.8408447703      -10.4759673181
 C         0.6801233303       -8.4994059313       -8.8169237107
 C        -0.3078359032       -9.1971575467       -9.6363402883
 C        -1.7027287629       -8.5020843739       -9.4470294161
 O        -1.9344067992       -7.9104689119       -8.3958560492
 C        -2.7171454354       -8.4616076539      -10.5664497548
 C        -4.1916003402       -8.3084535556       -9.8101325552
 O        -4.6875272800       -7.1364310570       -9.7391349662
 C        -4.9066332560       -9.5544682016       -9.3229282653
 C        -5.9883601700       -9.2525996159       -8.3324753579
 C        -5.4518917981       -9.1963545918       -6.8831741530
 O        -4.7212388104       -8.3024754049       -6.4320125839
 C        -5.9387288357      -10.3377819078       -5.9157270105
 C        -6.8654924233      -11.4374397503       -6.6028820318
 O        -6.3013763106      -12.4764634332       -6.9238243565
 C        -8.4339163385      -11.3477482035       -6.7069232845
 C        -8.9934639941      -12.2516088749       -7.8797844059
 C        -9.3157686324      -11.4662225844       -9.1027146103
 O        -8.4322411108      -11.0552702905       -9.8465852389
 C       -10.7570469653      -11.0861197693       -9.5006639186
 C       -10.8858452506       -9.5355314389       -9.0675706060
 O       -10.0792199824       -9.0730281706       -8.2087821707
 C       -11.9860421991       -8.7776017574       -9.5548416598
 C       -12.2798479541       -7.8409535468       -8.2788713502
 C       -13.3992797385       -6.7300508875       -8.5843182033
 O       -13.5323043356       -6.4567076618       -9.7284925998
 C       -14.2374438064       -6.1379410485       -7.4277339557
 C       -15.2629487056       -7.3736856083       -7.3123404223
 O       -15.1591011648       -8.3526592759       -6.5933250833
 C       -16.4104831579       -7.5243091103       -8.4401770437
 C       -13.4600005875       -5.8443077442       -6.1602754531
 C       -14.9071341740       -4.8004590128       -7.8594355538
 C       -10.9944384894      -11.2023092401      -11.0550181199
 C       -11.8392343164      -11.8710823049       -8.7946073529
 C        -4.6615376293      -10.9977966224       -5.4524140657
 C        -6.5282708735       -9.6443980532       -4.7442515642
 C        -2.4496223468       -7.3275217354      -11.5080153762
 C        -2.7357637383       -9.8308579553      -11.3593247458
 C         2.8650982499       -5.2807295656       -9.5458226032
 C         3.1531760240       -7.2926942212       -7.9026841259
 C        -1.9362484615       -3.3612690356       -4.3445592209
 C        -2.6221083910       -5.6468898147       -4.7283224419
 C        -5.5335913562       -0.8124023715       -9.6651471646
 C        -3.0035565803       -0.7264113456      -10.4231180859
 C        -2.3419435715        5.6152229454       -7.4821082196
 C        -3.3447035175        6.8481827190       -9.5319901975
 C         5.2079327227        6.6573317172       -9.4009961692
 C         3.8738623755        8.8488600156       -9.1295349992
 C         4.2794491219        2.9419640506      -15.9810711699
 C         3.7910709179        5.1172064524      -16.8586918626
 C        -2.4629254619        2.1440435039      -14.9570413472
 C        -0.7829142514        2.7912642724      -16.7132849480
 C        -2.6668383764       10.1329793443      -16.2675972417
 C        -1.3549746553        9.8853901194      -13.9663661628
 H        -5.1410639879        9.7855160788      -14.8591048992
 H        -4.2228943641       10.9457014104      -13.9847830418
 H        -5.2239808411        9.6486803525      -13.1190585358
 H        -2.1979248578        7.4480733191      -17.4980303661
 H        -3.3667759830        6.8131561667      -16.2870488260
 H        -0.5399328151        5.6647364554      -16.5779206062
 H        -1.6601965754        5.1052117431      -17.7183133527
 H         0.6735450573        1.7009678408      -14.8643065479
 H         0.5223872554        1.7905652447      -13.0861688060
 H         2.7964001877        2.5245603786      -13.6500609750
 H         1.8204783762        3.8848078582      -13.0185394178
 H         2.9415110632        5.9617581385      -13.6530538160
 H         4.2518016393        6.9594750833      -14.1512821508
 H         5.6355073297        6.4835657083      -12.4966833798
 H         4.3228644748        5.5240064883      -11.5015645252
 H         1.1027568616        7.4454472151      -10.5254770614
 H         1.3993034287        8.5089893723       -9.0120597202
 H         0.1430559794        6.6308425741       -7.6916173981
 H         0.8015076755        5.5023317509       -8.8195021370
 H        -4.0588960241        3.8181367255       -8.4240108424
 H        -2.4090833761        3.1119132482       -8.1410853059
 H        -2.3723142513        1.8297323934      -10.2011733442
 H        -4.0631688090        2.1965252894      -10.5809489041
 H        -5.7469818062       -1.6959290891       -7.1736801694
 H        -4.7202496001       -0.3158465707       -6.4353898117
 H        -5.2782994221       -2.7848299919       -5.2575421877
 H        -3.7027423730       -2.0067917232       -4.8926897801
 H         0.4523122350       -3.9979039773       -5.5376734888
 H        -0.1504292503       -2.5903705201       -6.4253196572
 H         1.9163897972       -3.6522932886       -7.4493200004
 H         0.5676824045       -3.9775007010       -8.6356317925
 H         0.3367809266       -8.3157468663       -7.8904023597
 H         1.5712646423       -9.1532597235       -8.8189872421
 H        -0.2802592164      -10.3273497596       -9.5215343722
 H         0.0657320467       -9.1384958236      -10.6715918531
 H        -4.2164227387      -10.3054433816       -8.9446071686
 H        -5.3670642060       -9.9957677462      -10.1841025522
 H        -6.7846825382       -9.9934771383       -8.2448010968
 H        -6.4784824380       -8.3785832797       -8.6457827154
 H        -8.8553357078      -10.3298758134       -6.8222788265
 H        -8.8788601585      -11.8068915810       -5.8206837195
 H        -9.8392353951      -12.9036776214       -7.4393585560
 H        -8.0965320692      -12.9419303708       -8.0952747737
 H       -12.9016770966       -9.3977535861       -9.7765535889
 H       -11.6917648248       -8.1168957370      -10.3281971914
 H       -11.2423132083       -7.3891821890       -8.0163183107
 H       -12.6800381857       -8.4445861462       -7.4487276399
 H       -16.8334891948       -6.5440343744       -8.5737073302
 H       -17.1523067503       -8.2209973028       -8.0876033231
 H       -16.0651307766       -7.8993137469       -9.4381505414
 H       -12.9378774813       -4.8877354733       -6.1933785492
 H       -12.7911413639       -6.6778608405       -5.8892330935
 H       -14.1325207128       -5.6069751626       -5.3661080123
 H       -15.6680663087       -4.4938401054       -7.1810214522
 H       -15.3964560372       -4.8196473642       -8.8784766365
 H       -14.1754540758       -4.0363134107       -7.9761116269
 H       -11.5588802615      -10.3078428730      -11.4756957409
 H       -11.6061592623      -12.0741292358      -11.2958516658
 H       -10.1268111567      -11.2392204056      -11.6036798817
 H       -12.0994752811      -11.3512585163       -7.8179629161
 H       -11.7516495161      -12.9656077924       -8.5931092146
 H       -12.7499036464      -11.7383416788       -9.3581607600
 H        -4.0400103514      -11.2681504632       -6.2501770998
 H        -4.7318503168      -11.9171504358       -4.9026515305
 H        -4.0766592967      -10.2845074851       -4.9600643880
 H        -5.8059017464       -8.9758725304       -4.3373868396
 H        -6.7921233669      -10.2940762314       -3.9696363801
 H        -7.3892244303       -8.9774713428       -5.0076425917
 H        -1.5489508103       -7.4269999147      -12.1083927021
 H        -2.3028229998       -6.3282477811      -11.1419768371
 H        -3.1695481087       -7.3956705141      -12.2919895100
 H        -1.8079953142      -10.2120630843      -11.7490418671
 H        -3.4574179808       -9.6726651115      -12.1844267921
 H        -3.0470577766      -10.7146989354      -10.8254112754
 H         3.0161214291       -4.3596452629       -8.9447118256
 H         2.3199913915       -5.1787355439      -10.4553977600
 H         3.8692414218       -5.7294724700       -9.7464400660
 H         2.6494039565       -8.0411818185       -7.2887548295
 H         3.8674958835       -6.7126970812       -7.2620934494
 H         3.7726884755       -7.8773454594       -8.6040860648
 H        -1.0570011410       -3.6206467185       -3.7973739954
 H        -2.7475227413       -3.2629027247       -3.5933171052
 H        -1.7605105329       -2.3693773362       -4.7287082204
 H        -2.2039835289       -5.5961876385       -3.6767970499
 H        -2.1211516869       -6.3897465778       -5.3410036464
 H        -3.6873769789       -5.7557518829       -4.4505860084
 H        -5.6915629936       -0.6797164400      -10.7153258621
 H        -6.4448435068       -0.2150557596       -9.2173672582
 H        -5.7224219312       -1.8866428633       -9.4970736119
 H        -2.0009425555       -0.7287417281      -10.0431883419
 H        -3.1550862723        0.0276465186      -11.1736902550
 H        -3.1074890502       -1.6840474200      -10.8841825547
 H        -1.6840764088        4.7957283649       -7.2454781349
 H        -3.3511703854        5.4267246456       -7.1436441062
 H        -2.2173839272        6.4866686187       -6.8597800422
 H        -4.3306619228        6.5199698344       -9.5719578147
 H        -3.1252330476        7.0809758962      -10.5399545684
 H        -3.3839445638        7.6905911701       -8.8086731982
 H         5.5944874503        6.8462848918       -8.3421780682
 H         6.0842371894        6.8380565026      -10.0396013927
 H         5.0235889026        5.5928669883       -9.3460194491
 H         4.8733750630        9.3451617667       -9.1927706639
 H         3.6742701750        8.7559871255       -8.1127478638
 H         3.1279723358        9.4893792722       -9.6902983714
 H         5.3024289066        3.0434176481      -15.6475930086
 H         4.1656963729        2.7748985848      -17.0782782733
 H         3.7995362806        2.0530330879      -15.5138989778
 H         4.5002268909        5.9245225410      -16.8157242731
 H         2.8139424080        5.5345491047      -17.1921128908
 H         4.1090780633        4.4339591016      -17.6264644435
 H        -2.7997348295        2.2440000686      -13.9901375933
 H        -2.0350260317        1.1053246538      -15.0790035580
 H        -3.3012639356        2.1799321013      -15.6303640545
 H        -0.4449438585        1.8319756577      -16.5420499435
 H         0.1533819566        3.3599868993      -16.9261027486
 H        -1.4549391202        2.8098708133      -17.5844282090
 H        -3.3714634787        9.5976919158      -16.8520141362
 H        -1.8883912957       10.4363529355      -16.9374073856
 H        -3.0239441703       11.0028566088      -15.7550263348
 H        -1.0206040208        9.0803829351      -13.3240588437
 H        -1.9946919826       10.6367479173      -13.4971712192
 H        -0.4388690466       10.4048355216      -14.4259479822
 Na       -1.9868600821        5.9945646685      -12.6642403702
 Na       -3.5500771296       -6.5340885418       -7.6275311289
