232

 C        -4.6114957074        9.8196569754      -13.9907971548
 C        -3.4860180546        8.8008469590      -14.0587798462
 O        -3.3585691185        7.9351023770      -13.2015959530
 C        -2.2153009774        9.1052400100      -14.8608959759
 C        -1.5623279187        7.6893914010      -15.3258824653
 O        -0.7404539895        7.1623482519      -14.5986090105
 C        -2.0976138151        7.0327090039      -16.6008239575
 C        -1.6310428302        5.6090998772      -16.7453750318
 C        -2.1081686846        4.6800675096      -15.5889943066
 O        -2.9645676597        5.0206161479      -14.7781636688
 C        -1.4155058368        3.1557706512      -15.5109084844
 C        -0.4655411141        3.3255663673      -14.2628824568
 O        -0.6821604337        4.1409278091      -13.3535386431
 C         0.7097744791        2.3913901734      -13.9835943516
 C         2.0482991421        3.1362248307      -13.8241093779
 C         2.1970277314        3.9792778358      -15.1298567766
 O         1.2791812287        4.5206746991      -15.6735587454
 C         3.7381426607        4.2222585837      -15.6122861600
 C         4.4188480465        4.8325866615      -14.2620384919
 O         5.3996387275        4.3122453242      -13.7104826564
 C         3.9552473692        6.1856505910      -13.6090577871
 C         4.4672412329        6.3273413713      -12.1189730332
 C         4.0342890412        7.5695575343      -11.4966745969
 O         3.8491084613        8.6538742641      -12.0000883728
 C         4.0136727915        7.5084210793       -9.8676970693
 C         2.7041584200        6.6656467084       -9.5193261111
 O         2.6973638230        5.4858281576       -9.2269829487
 C         1.3896077809        7.4627992487       -9.5692383556
 C         0.3515537958        6.5949867734       -8.7781584234
 C        -0.8752530335        6.2912789146       -9.5943896160
 O        -0.7314583000        6.4626095682      -10.8209400457
 C        -2.2396915738        5.9200727100       -9.0384449701
 C        -2.5772774413        4.5255841247       -9.7973131965
 O        -2.4661562583        4.5236029838      -11.0219539027
 C        -3.1257704862        3.3539647616       -8.9274890106
 C        -3.3243538298        2.0788493217       -9.6536665235
 C        -4.0493314249        0.9771785559       -8.7363983261
 O        -4.5394930340        1.3731477866       -7.7265662019
 C        -4.1328791631       -0.5468090573       -9.2739613087
 C        -3.7117798925       -1.4497325182       -8.0204389287
 O        -2.6682506392       -1.9725684760       -7.7697118607
 C        -4.7846631062       -1.5600545753       -6.9125394549
 C        -4.5235316086       -2.5821999013       -5.8262724862
 C        -3.7442874899       -3.8609639118       -6.2016354857
 O        -4.3000483126       -4.5299872160       -7.0185130882
 C        -2.4515512680       -4.2568876051       -5.4609296663
 C        -1.3048011073       -4.4379629714       -6.5869053907
 O        -1.5663098523       -5.1272656316       -7.5484933258
 C         0.0848084854       -3.8464189529       -6.3982096161
 C         0.9208378070       -4.1478416243       -7.5875183013
 C         1.2766184923       -5.6400234430       -7.4543489131
 O         0.8721226631       -6.2921798223       -6.4993404636
 C         2.1232492590       -6.3935926048       -8.5646712250
 C         1.0909470081       -7.2084607562       -9.4538729046
 O         0.6169260668       -6.7941799421      -10.4802199797
 C         0.7310703265       -8.5903995093       -8.8053930074
 C        -0.3063185646       -9.2475108318       -9.6537371722
 C        -1.6456672457       -8.4609575801       -9.5004381798
 O        -1.8172589848       -8.0338260571       -8.3989835221
 C        -2.7996105666       -8.3929413950      -10.6646612432
 C        -4.1705348525       -8.2685780856       -9.9239966382
 O        -4.6963909578       -7.2175609678       -9.7824215894
 C        -4.9051239906       -9.4958694887       -9.3667460002
 C        -6.0288116195       -9.0294316991       -8.2982616820
 C        -5.4425837753       -9.0395004151       -6.8482167534
 O        -4.6993192027       -8.1761140038       -6.4777565265
 C        -5.8909036544      -10.1763051763       -5.8942721865
 C        -6.7700871572      -11.4392697253       -6.6823020860
 O        -6.2508506418      -12.4233220334       -7.1211124995
 C        -8.2740869231      -11.3764935317       -6.5930721689
 C        -8.8351010063      -12.2059218764       -7.7643848322
 C        -9.1847564897      -11.4915670433       -9.1066931976
 O        -8.3812606722      -11.1581621495       -9.9466086818
 C       -10.7657455618      -11.0818450987       -9.4133480590
 C       -10.8258254059       -9.5183038754       -8.9796416744
 O        -9.8964422683       -9.1446974364       -8.2728359490
 C       -11.8620989707       -8.5891301699       -9.5152505628
 C       -12.3582884509       -7.7516611579       -8.2710306457
 C       -13.4770947498       -6.7098835179       -8.6337120278
 O       -13.6695178366       -6.2951598511       -9.7609813052
 C       -14.3212229753       -6.2494961594       -7.3984167206
 C       -15.3450785948       -7.3785519267       -7.1936949828
 O       -15.1963038677       -8.2940729532       -6.4075863899
 C       -16.5565792486       -7.4845612787       -8.2448198702
 C       -13.4438007157       -5.9736243617       -6.1597714874
 C       -14.9192346784       -4.8767546128       -7.8234376597
 C       -10.8193263421      -11.2043237053      -10.9552677477
 C       -11.9260307327      -11.8673921057       -8.7339471194
 C        -4.7177582812      -11.0035140407       -5.2089430925
 C        -6.7194086640       -9.5531978336       -4.7351214537
 C        -2.5808052636       -7.2403651746      -11.6564907733
 C        -2.6581026170       -9.8008483233      -11.3584339931
 C         2.7583690778       -5.3979992709       -9.5972636230
 C         3.1391244760       -7.2755841250       -7.9216829302
 C        -2.0017335397       -3.2022402206       -4.3915096600
 C        -2.7151388835       -5.7201665523       -4.7235232590
 C        -5.5721137170       -0.8867832573       -9.7108582640
 C        -3.2228365759       -0.8257536218      -10.3951693205
 C        -2.3133125129        5.8304121472       -7.5631731560
 C        -3.4317030093        6.8380095587       -9.5679899936
 C         5.2768701885        6.7801400453       -9.4575663670
 C         4.0120740429        8.9315567580       -9.1493761685
 C         4.4473504824        2.8487783667      -15.8602494503
 C         3.6949614077        5.2382393684      -16.7685216066
 C        -2.4544005853        2.0172799404      -15.2429470128
 C        -0.8287216766        2.7378968814      -16.9130424564
 C        -2.5344201492       10.0141689110      -16.1342031205
 C        -1.1005639360        9.8786343845      -14.0322027929
 H        -5.1203392801       10.0968316941      -14.9257392885
 H        -4.1710670342       10.7677103083      -13.6900746041
 H        -5.4134198738        9.5062797944      -13.3091273325
 H        -1.8446744277        7.6437013531      -17.5212409641
 H        -3.1909040386        6.9872273240      -16.4995975641
 H        -0.5418950389        5.3923743041      -17.0423779529
 H        -2.1546477671        5.2510281292      -17.6211904635
 H         0.8256440117        1.5866928861      -14.7669504511
 H         0.5199630851        1.8934163835      -13.0230081518
 H         2.8069613069        2.3683852521      -13.7229925329
 H         2.0003346288        3.8099822453      -12.9510362881
 H         2.8047649014        6.2018175491      -13.6613382976
 H         4.3063779194        6.9997462184      -14.2262293123
 H         5.5266243069        6.2990069125      -12.1720200898
 H         3.9949865162        5.5220133765      -11.4994566375
 H         1.2274881940        7.5119217943      -10.6914914024
 H         1.5887537602        8.4026573374       -9.0817038271
 H         0.0101060817        7.2392114290       -7.8848016447
 H         0.7265855867        5.7568310098       -8.2904425423
 H        -3.9889109567        3.8114116387       -8.4433267445
 H        -2.3786118003        3.1605027848       -8.0943640485
 H        -2.3843210837        1.8425776876      -10.0614355991
 H        -3.9513110508        2.3506756344      -10.6018637603
 H        -5.7544509355       -1.8312601807       -7.4999733333
 H        -4.9124431105       -0.6626236477       -6.4814907808
 H        -5.4826463570       -2.9157089943       -5.3074643670
 H        -3.9075894773       -2.0826123047       -5.1378853178
 H         0.5366696914       -4.1093192411       -5.4756921911
 H        -0.0896595460       -2.7970236500       -6.3810607454
 H         1.8797188850       -3.5653567482       -7.6459973689
 H         0.3882930196       -4.0707730701       -8.5400181186
 H         0.2631916098       -8.2586146408       -7.8777367550
 H         1.5156825550       -9.2258728089       -8.6855295070
 H        -0.3924152859      -10.3735228250       -9.4551172852
 H         0.1083599147       -9.2862454629      -10.6598461779
 H        -4.3206145106      -10.2221200794       -8.9250121070
 H        -5.3657191078      -10.0007572414      -10.2472852078
 H        -6.8921916849       -9.6101416562       -8.2770064702
 H        -6.3858542504       -8.0769632638       -8.5435405223
 H        -8.7914194000      -10.4254535625       -6.6250853276
 H        -8.6168373793      -11.9020299811       -5.6638053992
 H        -9.7266616707      -12.6868079533       -7.3430697022
 H        -8.0837125838      -13.0138850952       -7.9841295702
 H       -12.7165584031       -9.0765309126       -9.8704427871
 H       -11.4180716861       -7.9047462812      -10.2734693848
 H       -11.4804385155       -7.1705603974       -7.9532002259
 H       -12.7535149643       -8.3594675911       -7.4043065012
 H       -16.9061499843       -6.5412546408       -8.5999112781
 H       -17.3542291827       -8.2171650896       -8.0616620696
 H       -15.9796209419       -7.8887421743       -9.0740755252
 H       -12.8293588604       -5.1447647999       -6.3526354341
 H       -12.8684748311       -6.8661301995       -5.8893276715
 H       -14.0053968713       -5.5244280795       -5.3126815612
 H       -15.6107718786       -4.4477940312       -7.0853274294
 H       -15.4388982489       -4.9998059841       -8.6935562516
 H       -14.1656623446       -4.1042416829       -8.1297391700
 H       -11.1425501633      -10.2733037455      -11.4572305660
 H       -11.5072974938      -11.9393118126      -11.1795473610
 H        -9.9189921405      -11.5070968327      -11.4873506564
 H       -12.3126880857      -11.5268650031       -7.7542898571
 H       -11.6567008200      -12.9882477735       -8.6184679969
 H       -12.7679536515      -11.8848707956       -9.4010541193
 H        -4.1963950809      -11.6574696999       -5.9337186351
 H        -4.9883078455      -11.7442897223       -4.4660065496
 H        -3.9642839372      -10.3354077396       -4.8957510596
 H        -6.3267687505       -8.5956562870       -4.3814188813
 H        -6.7002769137      -10.2650398288       -3.9317775578
 H        -7.7245884599       -9.3510075912       -4.9588888603
 H        -1.5804660461       -7.1853384000      -11.9514433839
 H        -2.6885506587       -6.2165147213      -11.2753971772
 H        -3.0638793674       -7.3927596333      -12.6259074082
 H        -1.6868071501      -10.0093804542      -11.6969394863
 H        -3.3206294593       -9.8827749453      -12.2746364441
 H        -2.9276318230      -10.6492141734      -10.7216138200
 H         3.4730089745       -4.7309319028       -9.0591145101
 H         1.8617120415       -4.8223046033      -10.0110016163
 H         3.2643556257       -6.0319649180      -10.3880052582
 H         2.6687875934       -7.9553626995       -7.1467921812
 H         4.0533705046       -6.8048645651       -7.4609447364
 H         3.4962269158       -7.9478657357       -8.6978562060
 H        -1.1090792558       -3.3878763063       -3.7438470843
 H        -2.8251414889       -3.0716332135       -3.7303812173
 H        -1.8124544336       -2.2266888850       -4.7936774454
 H        -2.3447985651       -5.6861146315       -3.7138226510
 H        -2.2387265763       -6.4629611841       -5.3317360407
 H        -3.7898139542       -5.7935711965       -4.4865065301
 H        -5.8926634264       -0.2719000177      -10.5741357889
 H        -6.3567854537       -0.7430165589       -8.9648246993
 H        -5.6519047707       -1.9097004971      -10.0850918563
 H        -2.2426247496       -1.0867342342      -10.1325576611
 H        -3.2694458005        0.0791824878      -11.0216531124
 H        -3.5663971185       -1.7289673112      -10.9624988985
 H        -1.5742164813        5.1076408379       -7.1896292729
 H        -3.2739892691        5.6421904364       -7.2419382861
 H        -2.2213278739        6.7443150680       -7.0709313090
 H        -4.4247132989        6.4616849481       -9.3755242968
 H        -3.3569508927        6.7241828719      -10.6066949201
 H        -3.4798129769        7.7991613414       -9.2070877683
 H         5.9328626436        7.1018570642       -8.6090695789
 H         6.0206138860        6.6202866810      -10.2682179494
 H         4.9809151139        5.7929932310       -9.1732781577
 H         5.0327432148        9.3658944702       -9.2075767686
 H         3.7278837950        8.9360655237       -8.1132664487
 H         3.3176016871        9.5586226962       -9.7138658425
 H         5.4780136003        3.0726463388      -15.6887990253
 H         4.1843837784        2.4653129864      -16.8750875530
 H         4.1424256705        2.0552819981      -15.1406615841
 H         3.9715234443        6.2667384744      -16.3856333355
 H         2.7818772401        5.3082039780      -17.4046244741
 H         4.5543773198        4.8614871525      -17.4435183671
 H        -3.0426139310        2.1708850794      -14.3404130145
 H        -1.9984428858        1.0559927720      -15.1539665345
 H        -3.1549343056        2.0028017565      -16.0641157679
 H        -0.4399810304        1.7279793233      -16.7986174936
 H         0.0276078201        3.2945874376      -17.3378222680
 H        -1.6866102651        2.7797102327      -17.5728996979
 H        -3.0223535943        9.3737372434      -16.9172539063
 H        -1.6102157714       10.3473063963      -16.6118364807
 H        -3.0077856410       10.9193865402      -15.7656480983
 H        -0.5763698882        9.2822669579      -13.2954503207
 H        -1.6708903074       10.7971931405      -13.7297578929
 H        -0.4280142967       10.2920227267      -14.7873397504
 Na       -2.0264669527        6.0285966082      -12.6841676620
 Na       -3.5229929889       -6.4703611987       -7.6350640561
