232

 C        -4.5632233320        9.7038639989      -14.1189186433
 C        -3.3670391953        8.7812902175      -13.8535781972
 O        -3.3166230518        7.9833262035      -12.9236447221
 C        -2.0735466364        9.0781742618      -14.7798710996
 C        -1.4071877535        7.6628816276      -15.2177626529
 O        -0.5822828652        7.0378804027      -14.5952758794
 C        -1.8772480594        7.1413563071      -16.6408407923
 C        -1.5477601272        5.5863540505      -16.9732254915
 C        -2.0396953334        4.6682616196      -15.7224030965
 O        -2.8557567359        5.0203702055      -14.8936102305
 C        -1.4617022308        3.2339882033      -15.6399468841
 C        -0.6010924921        3.1735806226      -14.3431902916
 O        -1.0045822562        3.6946676070      -13.3443039370
 C         0.4838279412        2.2180508707      -14.2024031190
 C         1.8575534735        2.8545250214      -13.8622043927
 C         2.2693168862        3.8813991231      -14.9919619047
 O         1.3955988393        4.3470408338      -15.7355336055
 C         3.6866039253        4.2628300874      -15.4160000695
 C         4.4773783932        4.9626858677      -14.2383427673
 O         5.4461108096        4.4881687328      -13.7722836555
 C         3.8032096013        6.1914010985      -13.7085946938
 C         4.0845570747        6.1753036304      -12.1667752303
 C         4.0477268658        7.5588738228      -11.3963208837
 O         3.7404688894        8.5586651633      -12.0567248797
 C         4.1869072516        7.4809111317       -9.8412112797
 C         2.9817856104        6.6434716863       -9.4016243107
 O         3.0496204987        5.4356109507       -9.4076114821
 C         1.5719811214        7.4412680961       -9.4654498738
 C         0.2304563811        6.9951369941       -8.7914301460
 C        -0.8457827303        6.3557184602       -9.7432949515
 O        -0.6575137600        6.4805982771      -10.9096691781
 C        -2.2679524966        6.0278151645       -9.1597374433
 C        -2.6463599054        4.4349537696       -9.7256640197
 O        -2.5952908965        4.2738186831      -10.8874278650
 C        -3.0704858653        3.2573147870       -8.7132904668
 C        -3.2444118253        1.8785071292       -9.5074691974
 C        -4.0861052297        0.8603525116       -8.7793145014
 O        -4.9385770232        1.2343568203       -7.9887826692
 C        -4.2406834638       -0.6025270876       -9.1983710758
 C        -4.0204121437       -1.4932198450       -7.9553816771
 O        -2.8552789132       -1.8380291012       -7.7214664790
 C        -5.1621976254       -1.9338411343       -7.0767688964
 C        -4.6797305321       -2.5075835903       -5.7549716714
 C        -3.9091578584       -3.8170695641       -6.1164213690
 O        -4.3443926606       -4.4894098913       -7.0660850444
 C        -2.5642982525       -4.1770068175       -5.4832682394
 C        -1.4549927763       -4.3960143676       -6.6080503311
 O        -1.6018591602       -5.1706161993       -7.5328384461
 C        -0.0740207590       -3.7027417360       -6.3920262387
 C         0.9457170481       -4.2222863436       -7.4142913781
 C         1.3439490546       -5.7497902058       -7.4329751819
 O         1.0636254169       -6.4331774749       -6.4754304632
 C         2.1647070885       -6.3900115928       -8.5542429899
 C         1.1217707834       -7.3438168732       -9.3933715160
 O         0.4873441692       -6.8371174990      -10.3282042517
 C         0.8124248470       -8.7975128854       -8.9481624251
 C        -0.4524639002       -9.3358954045       -9.8185076120
 C        -1.7672691027       -8.6113027487       -9.5160100961
 O        -1.9953989028       -7.9444076877       -8.5102229269
 C        -2.8479229674       -8.5385350405      -10.7083342947
 C        -4.1680876023       -8.2582099738       -9.9377432404
 O        -4.4801491822       -7.0377996314       -9.8226171758
 C        -5.0010334809       -9.3737526454       -9.3272352849
 C        -6.0188403988       -9.0084787494       -8.3069844910
 C        -5.5036427534       -9.0672223277       -6.8184787904
 O        -4.6512380087       -8.2756860769       -6.3615013393
 C        -5.9718894882      -10.0995021440       -5.8272461563
 C        -6.5965956422      -11.2494300507       -6.7392865636
 O        -5.8195990560      -11.9171430913       -7.4211240651
 C        -8.1528333579      -11.3022082911       -6.7295474277
 C        -8.9226308463      -12.3825871780       -7.6060038233
 C        -9.1023400952      -11.6565282506       -9.0021321414
 O        -8.1525973245      -11.4321433746       -9.7235295219
 C       -10.5633263360      -11.0031390534       -9.4771179096
 C       -10.5240810297       -9.4611925569       -8.9740315310
 O        -9.6439482116       -9.0432125798       -8.2311925065
 C       -11.6497027327       -8.5167639838       -9.4618866877
 C       -12.3640206824       -7.7951853804       -8.3168780487
 C       -13.5330431663       -6.7037976700       -8.6816478773
 O       -13.7268089293       -6.2756698605       -9.7641056117
 C       -14.4158542903       -6.2328528234       -7.4193484886
 C       -15.5244909291       -7.3146337807       -7.0320231472
 O       -15.3095242310       -8.0821389975       -6.1045320866
 C       -16.7669967432       -7.4998129351       -7.8682013791
 C       -13.5038922727       -6.1303341336       -6.1151611567
 C       -15.1441311891       -4.9031791032       -7.6261695818
 C       -10.8533675697      -11.0845178865      -10.9757217325
 C       -11.6086213468      -11.6831495716       -8.6451334320
 C        -4.7721970471      -10.5742027405       -5.0760717767
 C        -6.9527333531       -9.4271980126       -4.7964088844
 C        -2.4645754920       -7.3185059741      -11.6331674359
 C        -2.8594243993       -9.7880392769      -11.5843923003
 C         2.7573612648       -5.3620470044       -9.6072037964
 C         3.3209479773       -7.2327506488       -7.9456631276
 C        -2.1041385898       -3.1335063089       -4.4012247955
 C        -2.7901192070       -5.5386105588       -4.8351232853
 C        -5.6721775131       -0.6879198295       -9.7046132485
 C        -3.1800558315       -1.0346033239      -10.3553034707
 C        -2.3036494795        6.0560735231       -7.5939169232
 C        -3.3925452264        6.9412179475       -9.6837228577
 C         5.4400441565        6.7846293047       -9.2957163973
 C         4.1594433506        9.0302162717       -9.4517444622
 C         4.5299358746        3.0832435762      -15.8271353598
 C         3.7560881518        5.3294068934      -16.5801579966
 C        -2.6626108064        2.2463255440      -15.3442973479
 C        -0.6799806836        2.8760558868      -16.8650697239
 C        -2.4464328270        9.8440783279      -16.0513526757
 C        -0.9125868141        9.7479894319      -13.9887376745
 H        -4.7511420373       10.0539207695      -15.0966745171
 H        -4.4104857596       10.6318746308      -13.5439647956
 H        -5.4974122884        9.2357512012      -13.8549554093
 H        -1.4558547632        7.7775082786      -17.4275710989
 H        -2.9880304174        7.2100664893      -16.6966144954
 H        -0.5750150205        5.3895778912      -17.2735883191
 H        -2.1324637419        5.3595849518      -17.9073242500
 H         0.6625743723        1.7073689665      -15.1104826186
 H         0.1624398142        1.5049209834      -13.4282895366
 H         2.5855737657        2.0179358147      -13.8620131214
 H         1.8386059917        3.3658200590      -12.8766871704
 H         2.7594125088        6.2112108537      -13.9368656149
 H         4.2882574265        7.0099981046      -14.3287365463
 H         5.1375125372        5.8300079566      -12.0886940532
 H         3.4084214612        5.4256400616      -11.8171733629
 H         1.4587740721        7.4559181539      -10.5254161671
 H         1.8637478092        8.4300480243       -9.0598284444
 H        -0.2301931263        7.8331424109       -8.3851822427
 H         0.3350788782        6.3861529645       -7.8535629619
 H        -3.9425794628        3.4854869282       -8.1299140272
 H        -2.2541277895        3.2281161045       -8.0528266921
 H        -2.2260235998        1.4728875529       -9.7992646909
 H        -3.6518839594        2.0951329960      -10.4282372464
 H        -5.7318792356       -2.6142328024       -7.5874188451
 H        -5.8447930828       -0.9960519399       -6.8560064623
 H        -5.5370190323       -2.8961716045       -5.2686891921
 H        -4.0748241587       -1.8529599424       -5.0607547220
 H         0.2386427858       -3.9917518632       -5.3612949105
 H        -0.1107682687       -2.5802727566       -6.3827296072
 H         1.9207522369       -3.7700324463       -7.3548851919
 H         0.6552407280       -3.9696498525       -8.4418822048
 H         0.6751274417       -8.9599379334       -7.8579291507
 H         1.7808821997       -9.3105221528       -9.4259333830
 H        -0.4900825061      -10.3851940591       -9.8563311363
 H        -0.3049382897       -9.1306496398      -10.8924128117
 H        -4.4095751871      -10.2778855972       -8.9072884722
 H        -5.5343076341       -9.7898330497      -10.1792220207
 H        -7.0263648480       -9.5733924556       -8.3670304237
 H        -6.4287371184       -7.9316695897       -8.4496470718
 H        -8.7062145583      -10.3806907419       -7.0014744364
 H        -8.3752896144      -11.4217778693       -5.6742391992
 H        -9.8671630601      -12.5749314868       -7.1446194550
 H        -8.3484639392      -13.2438235078       -7.6916967204
 H       -12.5645355242       -9.0348389497       -9.9360620246
 H       -11.1948433820       -7.9101408547      -10.2430103662
 H       -11.5831979113       -7.2419793834       -7.7775745038
 H       -12.7978610185       -8.4539603938       -7.6368707065
 H       -17.3864648897       -6.6013985158       -7.6928081937
 H       -17.2527262123       -8.3428776624       -7.3682029944
 H       -16.7097363521       -7.7555927600       -8.9454087497
 H       -12.4549286722       -5.7288353665       -6.1601190418
 H       -13.5085277403       -7.1571350321       -5.8241506527
 H       -13.9776356169       -5.5234555764       -5.3932910208
 H       -15.8511505378       -4.7089414259       -6.8215765202
 H       -15.7115210683       -4.9743464605       -8.6485890494
 H       -14.5722176882       -4.0194144037       -7.7531271519
 H       -11.1953870353      -10.1635321160      -11.4565541029
 H       -11.4924209308      -12.0122805065      -11.1469056722
 H        -9.9651937995      -11.3555743391      -11.5244258071
 H       -11.4454612004      -11.7309803679       -7.5867285113
 H       -11.6511848334      -12.6648238021       -8.9806658521
 H       -12.6107898086      -11.2930861696       -8.8371050122
 H        -4.3311201786      -11.4743029283       -5.5196090641
 H        -5.0903959877      -11.0457021099       -4.1194737175
 H        -3.9313165013       -9.8258795209       -4.9449494254
 H        -6.4117000073       -8.6073889603       -4.3298461011
 H        -7.4171802784      -10.1018018450       -4.0666011650
 H        -7.8164901881       -8.9309064327       -5.3856700811
 H        -1.3676858294       -7.0857990149      -11.7586982470
 H        -2.7477280561       -6.3611944680      -11.2027369359
 H        -2.8340701372       -7.3345846103      -12.6568160195
 H        -2.1206636721       -9.7130360551      -12.4514971594
 H        -3.7520850767      -10.1446531136      -12.0489074864
 H        -2.5613305659      -10.6447380671      -10.9529040620
 H         3.8374050532       -5.4229668682       -9.5007400162
 H         2.4879599640       -4.3694348575       -9.4145180249
 H         2.4782649101       -5.7826637789      -10.5531018131
 H         2.9869613913       -7.6084008683       -7.0146638836
 H         4.1451377015       -6.6051782276       -7.6882625174
 H         3.7272722738       -8.0641206626       -8.5550638720
 H        -1.1907599046       -3.4918546018       -3.9910976522
 H        -2.8130072099       -3.1274015499       -3.5364532706
 H        -1.8757587921       -2.0759915988       -4.5891426890
 H        -2.0710142355       -5.7222890790       -4.0498830995
 H        -2.7410026971       -6.2625944493       -5.6139249944
 H        -3.6933804605       -5.4481344641       -4.3179780681
 H        -5.7837635887       -0.0924228495      -10.5800886057
 H        -6.4137103513       -0.4069609691       -8.8987177383
 H        -5.9928457533       -1.6398875220      -10.0700736283
 H        -2.1338256268       -0.7473267102       -9.9927701212
 H        -3.3526401527       -0.5235754817      -11.3042274523
 H        -3.0615287507       -2.0996656836      -10.3970280958
 H        -1.4479575618        5.5286162736       -7.2328656726
 H        -3.2726214085        5.6525045017       -7.1941652397
 H        -2.2806743222        7.0305100033       -7.0249676057
 H        -4.2601386417        6.8049617095       -9.0453440785
 H        -3.7731535665        6.7962181173      -10.7123268399
 H        -3.0962001137        8.0461797247       -9.4714033163
 H         5.6849031646        7.1187842370       -8.3129243218
 H         6.3238150696        6.9718329271       -9.8506789470
 H         5.3796038287        5.6773058311       -9.2959183396
 H         5.1356536231        9.4940808143       -9.6297070574
 H         3.9582895165        9.1101617948       -8.3653181553
 H         3.3139524421        9.5860279604       -9.9346569312
 H         5.3931786884        3.4801456682      -16.3590524151
 H         3.9545806120        2.4051095008      -16.4274433754
 H         4.9575493148        2.6193269929      -14.9512709995
 H         2.8304320506        5.8368117971      -16.7902159125
 H         3.9732840785        4.7338583889      -17.4828212618
 H         4.6002376948        5.9682258513      -16.4957754986
 H        -3.4249277658        2.5990325138      -14.6637434013
 H        -2.2409566129        1.3237310496      -14.8371695319
 H        -3.2017006430        1.9815526276      -16.2750815728
 H        -0.0460836177        2.0155877679      -16.7940593349
 H         0.0738802245        3.6551736821      -16.9242750798
 H        -1.2957437251        2.9445263140      -17.7653883586
 H        -3.3247299135        9.4216940495      -16.4786019418
 H        -1.6574374222        9.7076237285      -16.8124045835
 H        -2.4162255810       10.9044334075      -15.7772168526
 H        -0.7884956044        9.1467356177      -13.0888527254
 H        -1.0302590475       10.7953942747      -13.9077381516
 H         0.0015818976        9.6044315634      -14.5926858966
 Na       -2.0057376340        6.0235152523      -12.9140227699
 Na       -3.5054793253       -6.5972684554       -7.8330142607
