232

 C        -4.3534284905        9.4503088663      -13.9338497996
 C        -3.0739045841        8.5995651686      -13.8471265600
 O        -3.0237133134        7.7623793860      -13.0022158796
 C        -1.7369472087        9.0015472778      -14.7754318729
 C        -1.4569038783        7.6581682941      -15.3127029748
 O        -0.8776605081        6.8915982877      -14.5329324897
 C        -1.7141253006        7.1475451178      -16.7279610968
 C        -1.1951596717        5.6566249479      -16.8854738843
 C        -1.8635995621        4.7142702653      -15.8358128185
 O        -2.7811597324        5.1636228793      -15.2071465663
 C        -1.7023800605        3.1151454804      -15.8257260609
 C        -0.6387184319        2.8883917507      -14.4654043557
 O        -0.8935286375        3.5407753939      -13.4911496639
 C         0.5871390728        1.9105568878      -14.4989943796
 C         2.0103322407        2.6028260135      -14.3084302793
 C         2.3079936491        3.9370104806      -15.0613886998
 O         1.3243284822        4.5626670216      -15.4737937926
 C         3.7317349971        4.2129445010      -15.4311825202
 C         4.4767103408        4.8635168321      -14.2768029633
 O         5.5151200187        4.3899443436      -13.9901541879
 C         3.8081022137        6.0998924533      -13.7120997923
 C         4.0038392515        6.0408880220      -12.0478444242
 C         3.8988570499        7.4729059222      -11.4147795738
 O         3.6943531991        8.4610646907      -12.1094689571
 C         4.0941032995        7.6474729828       -9.8172378401
 C         2.7982498906        7.0148250960       -9.2921146495
 O         2.7944180559        5.8915460100       -8.8604292573
 C         1.4254858626        7.6781032352       -9.3964030531
 C         0.3516554983        6.6693269955       -8.8094519318
 C        -0.7716713352        6.2879439394       -9.8194105513
 O        -0.5123837497        6.4477124471      -10.9535565371
 C        -2.2032768611        5.8111101899       -9.3068105534
 C        -2.6335100568        4.4061030534       -9.8164155590
 O        -2.7953262031        4.2024921712      -10.9737545444
 C        -2.8946391375        3.2987999206       -8.7199232123
 C        -2.8742315696        1.8874769311       -9.2020867249
 C        -4.2717648186        1.1320874813       -8.8418842597
 O        -5.1263972444        1.6095507445       -8.1139698027
 C        -4.4601035006       -0.3823379546       -9.2727252331
 C        -4.2766579612       -1.3158168714       -7.9450017151
 O        -3.0910248195       -1.5544845903       -7.6736489531
 C        -5.4546211501       -1.8761379784       -7.0811362525
 C        -4.9649274720       -2.5330727750       -5.8410122715
 C        -4.0394019606       -3.8548009552       -6.1386784955
 O        -4.6360965326       -4.5971529057       -6.9643347848
 C        -2.6720938579       -4.1466578503       -5.4838628011
 C        -1.5934713435       -4.4678877401       -6.5928613641
 O        -1.7522010684       -5.2080581521       -7.5524806770
 C        -0.1867538809       -3.9110054596       -6.3658019512
 C         0.7714141747       -4.3565351607       -7.5527957203
 C         1.3550647825       -5.8594841296       -7.3696169798
 O         1.1356818643       -6.4853434726       -6.3563247549
 C         2.0911498181       -6.4999041898       -8.5967368222
 C         1.0021142304       -7.2473873685       -9.4071375211
 O         0.3297648146       -6.6375236278      -10.2328869721
 C         0.7891261227       -8.7341490363       -9.1323345623
 C        -0.3698769600       -9.3254872207       -9.9702413053
 C        -1.6360784350       -8.6982085527       -9.6063727610
 O        -1.8368513179       -8.2007939004       -8.4499118558
 C        -2.8043179651       -8.6891525973      -10.6834606628
 C        -4.0910983768       -8.1681133332       -9.9907596774
 O        -4.3826640889       -6.9981555275      -10.0115828850
 C        -5.0198617657       -9.1225870636       -9.3835559205
 C        -6.0343486456       -8.6224734674       -8.3226351327
 C        -5.4391876653       -8.7874831652       -6.8983034088
 O        -4.4576228785       -8.1279175066       -6.5207046898
 C        -6.0784289552       -9.7938746921       -5.9104023955
 C        -6.6673122275      -10.9674138817       -6.7311830320
 O        -6.0009047130      -11.5367056906       -7.6113924182
 C        -8.0699927606      -11.5209299902       -6.4695865941
 C        -8.5888800591      -12.2597388806       -7.6890740739
 C        -8.9198724734      -11.4398055887       -8.9866238675
 O        -8.0747136598      -11.5033812885       -9.8706455100
 C       -10.2704500278      -10.7637843806       -9.2649383436
 C       -10.2925317106       -9.2307656459       -8.8770707936
 O        -9.4291490403       -8.6714116288       -8.2659456256
 C       -11.6590320046       -8.4525797810       -9.2090714489
 C       -12.4306488401       -8.0125886045       -7.9369552017
 C       -13.5250754184       -7.0096688678       -8.3602454942
 O       -13.6904410183       -6.7273424631       -9.5127125977
 C       -14.3958278553       -6.3081597229       -7.1780581727
 C       -15.5206059955       -7.3694223045       -6.7418147564
 O       -15.2773138815       -8.1284131861       -5.8417566320
 C       -16.9188749054       -7.3350254692       -7.5569065985
 C       -13.5323916623       -6.0775897562       -5.9565980543
 C       -15.0363956130       -5.2286524647       -7.9395218340
 C       -10.4717112557      -11.0413701313      -10.8368001813
 C       -11.3828661976      -11.4658351995       -8.5052632122
 C        -5.0540099663      -10.4139128672       -5.0601229818
 C        -7.0951528266       -8.8906032242       -5.1701502489
 C        -2.4935283711       -7.5297977895      -11.6143830332
 C        -3.0875859073       -9.9273182478      -11.4656443672
 C         2.7600319128       -5.4574793675       -9.4779465637
 C         3.1528693996       -7.4816034442       -8.0667588070
 C        -2.1583672494       -3.0251423534       -4.5117258577
 C        -2.8480623878       -5.5868589091       -4.6497438867
 C        -5.7330578925       -0.7322816261      -10.1296935343
 C        -3.2255400696       -0.8073211560      -10.2457377531
 C        -2.1221043739        5.9673038512       -7.7660290080
 C        -3.2314947950        6.8388727237       -9.7926581999
 C         5.3635131414        6.8315327918       -9.3829765572
 C         4.1671313724        9.1017242605       -9.2503791154
 C         4.5176105589        2.9447041817      -15.8899475447
 C         3.7292354610        5.2461471719      -16.5926976972
 C        -3.0205723639        2.4763958596      -15.5500832423
 C        -0.9658867795        2.5982834599      -17.1327040809
 C        -2.0054696673       10.0092243320      -15.8075732481
 C        -0.7421880939        9.6095543347      -13.7939688254
 H        -4.9776783646        9.1619090863      -14.8072506416
 H        -4.2157583795       10.5208846256      -14.1077019826
 H        -5.0316495535        9.2006628452      -13.1108052384
 H        -1.1604848654        7.7579609145      -17.4192974017
 H        -2.8260140280        7.1472416879      -17.0083703435
 H        -0.0946314957        5.6974191103      -16.7782925432
 H        -1.3007266336        5.2153540536      -17.8973741074
 H         0.6396724259        1.3956859148      -15.4689537653
 H         0.3908053018        1.2271539048      -13.6489549697
 H         2.7828998764        1.8375294358      -14.6129071851
 H         2.1518964003        2.7187575554      -13.2408608112
 H         2.7479394854        6.0766299726      -14.0074795838
 H         4.2341175621        7.1240381398      -13.9691901591
 H         4.9727466336        5.6117462775      -11.7428144845
 H         3.2153392537        5.5022810461      -11.5783222761
 H         1.2232633117        7.7741806719      -10.4881713291
 H         1.3985521939        8.6850168818       -8.8996000164
 H        -0.0084915215        6.9930322760       -7.9107398230
 H         0.8063403717        5.7054258725       -8.4970879415
 H        -3.9577968611        3.3708982345       -8.3147167221
 H        -2.2659500337        3.4156589388       -7.8571438466
 H        -1.9623542998        1.3912464860       -8.7504499214
 H        -2.6940931748        1.7552451977      -10.2721447649
 H        -5.9737919482       -2.4658538505       -7.6688234562
 H        -6.1850553122       -1.1087175333       -6.7358648624
 H        -5.8052679760       -2.8236953163       -5.2299340489
 H        -4.2740145995       -1.8460717011       -5.2466056664
 H         0.1409145448       -4.4576858882       -5.4703004834
 H        -0.1103594316       -2.9145630167       -6.1090706680
 H         1.6037529998       -3.7048329226       -7.7514892839
 H         0.3266925209       -4.3904778531       -8.5796080862
 H         0.5340363065       -8.7694615191       -8.0887715584
 H         1.7410097228       -9.2381777125       -9.3931956881
 H        -0.4740107924      -10.4128998507       -9.8715592910
 H        -0.1180565724       -9.1981682150      -11.0821707326
 H        -4.4384402788       -9.9747954412       -9.0515737623
 H        -5.7163135622       -9.5288209763      -10.0831437786
 H        -6.9496818178       -9.1722792807       -8.3485464829
 H        -6.2656285935       -7.6228010197       -8.4636803474
 H        -8.7768852835      -10.7872843793       -6.0530263435
 H        -8.0315584966      -12.2168002300       -5.6130586215
 H        -9.4605529438      -12.8893001655       -7.4142758761
 H        -7.7113008635      -12.8557343447       -7.8689107096
 H       -12.4016265754       -9.0507390151       -9.7312412697
 H       -11.5780043172       -7.6695135538       -9.9494323293
 H       -11.6251133545       -7.6043720674       -7.3406738284
 H       -12.9284683946       -8.7976687559       -7.2968674145
 H       -17.6564248483       -6.7890384280       -6.9496484568
 H       -17.2642087488       -8.2674404652       -7.9187344792
 H       -16.6354533313       -6.8038978822       -8.4561827341
 H       -12.7850525856       -5.2856962897       -6.2872916168
 H       -12.9167382007       -6.9518099584       -5.7417281734
 H       -14.1170731980       -5.8074180442       -5.0581466637
 H       -15.7699051475       -4.7103475067       -7.3729973021
 H       -15.4102238757       -5.5496824742       -8.9736631529
 H       -14.3357939167       -4.4705835555       -8.0875375333
 H       -11.4562032335      -10.9286875655      -11.1105090207
 H        -9.9308940575      -11.9032326191      -11.2715792057
 H       -10.0007393560      -10.2135742002      -11.3354812919
 H       -11.1994568425      -11.1274925404       -7.4681249440
 H       -11.2995692457      -12.5314352755       -8.4518125797
 H       -12.4726672971      -11.2360127047       -8.8336463996
 H        -4.1457675855      -10.5580823200       -5.6148825784
 H        -5.3334419496      -11.3570506809       -4.6916588998
 H        -4.8539122810       -9.8067449640       -4.1702193008
 H        -6.6053882115       -8.0477140009       -4.7667308396
 H        -7.5882068080       -9.4641327810       -4.4056196348
 H        -7.8656917186       -8.6481906297       -5.8878483886
 H        -1.8886425998       -7.6910545262      -12.5185308706
 H        -1.9454715106       -6.7724392627      -11.1279221626
 H        -3.3483462247       -6.9688843226      -11.9121160076
 H        -2.1681187275      -10.2633717290      -12.0221827751
 H        -3.6170302938       -9.6274728080      -12.2928410416
 H        -3.7244541488      -10.6536128677      -10.9991089538
 H         2.9181922832       -5.8031927796      -10.5319235825
 H         3.7303813737       -5.3174205076       -8.9883012120
 H         1.9878696971       -4.6753293498       -9.5349732081
 H         2.7513849558       -8.3862377835       -7.5815775141
 H         3.8077977823       -7.0062266956       -7.3430873971
 H         3.7915651665       -7.7266869060       -8.9815298651
 H        -1.2269642743       -3.2501685592       -4.0529654132
 H        -2.8173010733       -2.6845548594       -3.7281297831
 H        -1.9127048691       -2.1216429522       -5.0841530876
 H        -1.9486616008       -6.2040203308       -4.8812102745
 H        -3.7902195190       -6.0803713054       -5.0298312527
 H        -2.8523680436       -5.3508922975       -3.5825987355
 H        -5.5418345743       -0.6194326832      -11.2078873930
 H        -6.6673518255       -0.2945658281       -9.8005355160
 H        -5.9459836500       -1.7931007009      -10.0792442526
 H        -2.2580230580       -0.8300128036       -9.6845269629
 H        -3.0597429076       -0.0890607466      -11.0211322191
 H        -3.4567743722       -1.7704694186      -10.6387711904
 H        -1.3135133276        5.4318586809       -7.3535195130
 H        -3.0245002161        5.6322091989       -7.2095494517
 H        -1.8192406362        6.9713381000       -7.5086517974
 H        -4.1430918642        6.4383741343       -9.4815590139
 H        -3.3133274459        7.0783586661      -10.8259181642
 H        -3.0650799460        7.7622460230       -9.2662346021
 H         5.2601455818        6.5766175194       -8.3533470644
 H         6.2811606852        7.4122015975       -9.3817125528
 H         5.7467018975        5.9732668819      -10.0377275467
 H         4.9340805193        9.6168508921       -9.7648468424
 H         4.3351032430        9.1383949558       -8.1197210671
 H         3.2398963251        9.6680230914       -9.3687573377
 H         5.5198807514        3.2189558328      -16.3491040606
 H         3.9475394906        2.6308057448      -16.7450658215
 H         4.7244397479        2.1851239065      -15.1107205595
 H         3.6366348356        4.6923554847      -17.5813580773
 H         4.5857125550        5.9574623156      -16.7595591201
 H         2.8468385783        5.8821426769      -16.4211524947
 H        -3.3742633951        2.7499048219      -14.5498119254
 H        -2.9867288171        1.4135465773      -15.5625960146
 H        -3.8379513234        2.7844436288      -16.1684952252
 H        -1.0476046376        1.4729986114      -17.2145117210
 H         0.0730948392        2.8252167750      -17.1377870431
 H        -1.4159948926        3.0200565472      -18.0250456422
 H        -2.4345635436        9.5976827408      -16.7250543009
 H        -1.0153984187       10.5021158324      -15.9914076566
 H        -2.7095146852       10.8035165243      -15.4673891834
 H        -0.3896069577        8.6245995611      -13.3237910938
 H        -1.2555683986       10.2080952724      -13.0034347308
 H         0.0615749659       10.1602045565      -14.2875144611
 Na       -1.9657846490        5.4140754299      -12.7297466145
 Na       -3.5578305566       -6.4314029428       -7.8776835680
