232

 C        -3.8902009258        9.3462059590      -13.6240031170
 C        -2.8937382112        8.2188080271      -13.5988497035
 O        -3.0450687713        7.0757849079      -13.1679779430
 C        -1.4425185252        8.7016586443      -14.3116810023
 C        -0.7551491187        7.3249033215      -14.9463017626
 O        -0.1011937453        6.5769953547      -14.2727484648
 C        -1.1467388983        7.0310026790      -16.4020103520
 C        -1.0340611534        5.5956113745      -16.8994818435
 C        -1.9023965412        4.6930901327      -15.9559684912
 O        -2.7118818901        5.1969790473      -15.1869357083
 C        -1.8492390468        3.1410749514      -15.9917430204
 C        -0.6248937963        2.7870150721      -14.9912118694
 O        -0.5374195382        3.3681316454      -13.9553999245
 C         0.5036530885        1.8310517777      -15.3653125382
 C         1.9540452072        2.2262893254      -15.0181994141
 C         2.2643634155        3.6499879266      -15.4441005652
 O         1.4019799933        4.4152888817      -15.7612784626
 C         3.8846377124        4.1152429004      -15.5928683286
 C         4.3222525192        4.4759747748      -14.1562523269
 O         5.1928589097        3.8765825314      -13.6473845101
 C         3.6955869376        5.6963309256      -13.4460755814
 C         4.1687039055        6.0086165716      -12.0805251451
 C         3.7784317698        7.4221215834      -11.4460817093
 O         3.1053190732        8.2510891259      -12.0660613168
 C         3.9758749801        7.7368121680       -9.8894878911
 C         2.7002306781        7.0276784674       -9.1747443911
 O         2.9356455186        6.1547489968       -8.3527792884
 C         1.3975996603        7.2790618524       -9.7729778235
 C         0.1528884119        6.9145386475       -8.9806099254
 C        -0.9301247193        6.1565372259       -9.7851954882
 O        -0.6432957710        6.0077009976      -10.9411689750
 C        -2.3518988860        5.8693064133       -9.1992752409
 C        -2.6207732226        4.3496646197       -9.7371050395
 O        -2.6106088316        4.0456480769      -10.8855343122
 C        -2.5740683516        3.2803499235       -8.7030863568
 C        -2.7960481103        1.7662392683       -9.2705867861
 C        -4.2295695395        1.1260857336       -9.1120779520
 O        -5.1936090803        1.6942161084       -8.6034669935
 C        -4.4588387895       -0.3581412517       -9.4950607346
 C        -4.1449475930       -1.0701833990       -8.0780646716
 O        -3.0585206555       -1.0158041910       -7.4976382191
 C        -5.3550115176       -1.6686899947       -7.2895029810
 C        -4.8500547028       -2.2883627194       -6.0313903118
 C        -4.0769437490       -3.6531759544       -6.3343653112
 O        -4.5993702150       -4.4711615569       -7.0183599948
 C        -2.7246908412       -4.0079507684       -5.5847832871
 C        -1.7057345195       -4.3062472949       -6.6590552464
 O        -2.0258267768       -4.8527309689       -7.7519341680
 C        -0.2119395749       -3.9002012781       -6.5100634878
 C         0.6874567302       -4.4081012532       -7.6032114565
 C         1.2335863500       -5.8617055318       -7.3073325734
 O         1.0820462919       -6.3084609671       -6.1747117765
 C         2.0871618883       -6.6057123692       -8.4384207106
 C         0.8245686996       -7.2900019180       -9.3045472881
 O         0.2269908149       -6.5933906575      -10.0782697239
 C         0.5400043165       -8.8108574528       -9.0387182219
 C        -0.5749621244       -9.2245618574      -10.1344109541
 C        -1.9022472566       -8.5410865250       -9.8489811325
 O        -2.1072446209       -7.9639247131       -8.8045849973
 C        -3.0908530987       -8.6723823993      -10.9509422027
 C        -4.2901025313       -8.0242867354      -10.2357744655
 O        -4.2800624945       -6.8027796192      -10.0614040648
 C        -5.2972081414       -8.8227517205       -9.4382642536
 C        -6.1343614035       -8.0420447639       -8.3992478263
 C        -5.5539998552       -8.3851102394       -6.9417132562
 O        -4.4977302809       -7.8520317004       -6.6055079394
 C        -6.4063378075       -9.2735795784       -5.9751200183
 C        -6.5941088275      -10.6978009438       -6.7185472536
 O        -5.6737128541      -11.1226062414       -7.4092154567
 C        -7.8234247749      -11.6030584303       -6.5542952223
 C        -8.2659138288      -12.2684093325       -7.9689170631
 C        -8.6955529024      -11.2486600518       -9.0712948874
 O        -7.7842728408      -10.6696951070       -9.6347321604
 C       -10.1404226007      -10.6760460149       -9.2909951166
 C       -10.2022613466       -9.2688387066       -8.6157706749
 O        -9.5259974573       -9.1552141303       -7.6300619247
 C       -11.2765327108       -8.2863668341       -8.9154759254
 C       -12.0049571544       -7.9099839090       -7.6184416259
 C       -13.4699016298       -7.3911469792       -7.9593412955
 O       -13.9347090013       -7.7086690473       -9.0633402677
 C       -14.2529892737       -6.4586175769       -6.9845362911
 C       -15.3201883946       -7.5436104883       -6.4199390084
 O       -15.0115856726       -8.4769145696       -5.7702431498
 C       -16.7933213635       -7.5608832891       -6.9011118541
 C       -13.5304527913       -5.8950273883       -5.7613232183
 C       -14.8065432271       -5.1735714041       -7.6489216155
 C       -10.6740569299      -10.6155882568      -10.7382539320
 C       -11.0882105642      -11.5763782706       -8.4685871709
 C        -5.8132411699       -9.6728518514       -4.6134192973
 C        -7.7112954048       -8.3979707361       -5.5774390415
 C        -2.5804689707       -8.1100494079      -12.2794887982
 C        -3.3882036629      -10.1803811269      -11.1835523087
 C         2.7600376787       -5.4861879656       -9.3427382756
 C         3.0488325498       -7.5386678779       -7.7895026755
 C        -2.2939009856       -2.9911621944       -4.6015683433
 C        -2.9152816138       -5.4637848849       -4.7690327715
 C        -5.9742352143       -0.5162057478      -10.0724642600
 C        -3.4812464742       -0.9334400648      -10.6085822297
 C        -2.4911510983        6.1447281997       -7.6999925083
 C        -3.2967646799        6.7786977013      -10.0383289569
 C         5.2961415994        7.0727964640       -9.2957243467
 C         3.8935451402        9.2867713931       -9.6523684177
 C         4.7220401388        3.0826917048      -16.3124805548
 C         3.8302424290        5.4749610955      -16.4087834817
 C        -3.1162152460        2.5676320547      -15.3466243535
 C        -1.5298356394        2.5769213789      -17.3402518044
 C        -1.5423787177        9.7917152152      -15.4114067510
 C        -0.6264757238        9.0475897262      -13.0732865947
 H        -3.9218017515        9.8553305660      -14.6181462911
 H        -3.4824505521       10.1041221844      -12.9710067413
 H        -4.9422507983        9.2071641341      -13.3795427511
 H        -0.5010932345        7.6814610208      -17.1122366942
 H        -2.1496637750        7.3483320908      -16.6286828570
 H         0.0388333415        5.2789576205      -16.8933706376
 H        -1.2778642106        5.6185682344      -17.9503038852
 H         0.6040843704        1.7381885195      -16.4698051190
 H         0.2863391035        0.8282043941      -15.0557460076
 H         2.6584857532        1.4874024335      -15.4248946290
 H         2.1565279916        2.0964241910      -13.8988240344
 H         2.5583777491        5.7003187747      -13.5912885042
 H         4.0005952849        6.4844869034      -14.1315117362
 H         5.2107183791        5.8724671003      -12.1277506183
 H         3.9369456763        5.1793683310      -11.3975357438
 H         1.3061654806        6.6459761021      -10.6848935010
 H         1.3690461881        8.2747881970      -10.2127339141
 H        -0.4355241266        7.7877930178       -8.4913355140
 H         0.4172185710        6.2566414694       -8.1981802952
 H        -3.3183882246        3.4168940257       -7.9904280331
 H        -1.6599092871        3.4342616597       -8.0921332974
 H        -2.1791549481        1.1225499605       -8.7613271837
 H        -2.4747495777        1.8207899752      -10.3368806814
 H        -5.9748181054       -2.3395717533       -8.0051951537
 H        -6.0917224713       -0.8816808656       -7.0273188373
 H        -5.6818013526       -2.4574363384       -5.3123999500
 H        -4.1984473464       -1.6536422591       -5.4933516976
 H         0.1650394620       -4.2661707998       -5.5906137639
 H        -0.1662926056       -2.7885401367       -6.4207666302
 H         1.5410980218       -3.7195638478       -7.7939290188
 H         0.1350331147       -4.3872800863       -8.5107980108
 H         0.0541691200       -9.0158624337       -7.9576530744
 H         1.5250721477       -9.3454302927       -9.0960572012
 H        -0.6602497453      -10.3158837172      -10.1517112568
 H        -0.2811228910       -8.8473572525      -11.0500576466
 H        -4.7415180474       -9.5942107465       -8.9327023656
 H        -6.0206936034       -9.3222349769      -10.1358427619
 H        -7.2251962034       -8.2475474163       -8.3288896537
 H        -5.9794008154       -6.9124198132       -8.5399060634
 H        -8.6434107364      -11.3331434933       -5.8985306213
 H        -7.3405558139      -12.4201846781       -5.9666686875
 H        -8.9664877790      -12.9887781448       -7.7284275760
 H        -7.4588803300      -12.7593916721       -8.3983006941
 H       -12.0572600432       -8.8095934484       -9.4978327778
 H       -11.1499033783       -7.2830121110       -9.4206100882
 H       -11.4619633215       -7.1385684962       -7.1489673101
 H       -11.8307183596       -8.6912492563       -6.9504815974
 H       -17.0398718712       -6.5440108908       -6.6256190086
 H       -17.3997644345       -8.2887398048       -6.3492767438
 H       -16.8275284386       -7.7355961040       -7.9563417290
 H       -12.9068147906       -5.0921238831       -6.0788347275
 H       -13.0147888537       -6.7366757930       -5.2635550043
 H       -14.3252629699       -5.6119917232       -5.0065050220
 H       -15.5046034034       -4.7149250478       -6.9346185213
 H       -15.4039938137       -5.4798338671       -8.4644054128
 H       -13.9564658794       -4.5283869913       -8.0458257762
 H       -11.4002982574       -9.8467855600      -10.8566567567
 H       -11.3272884445      -11.4199038896      -10.9400231183
 H        -9.8806738819      -10.5071671038      -11.5370820961
 H       -11.0436985164      -11.3155135551       -7.4098857400
 H       -10.8656949479      -12.6851747795       -8.5793454612
 H       -12.1192178490      -11.3583998281       -8.7312942643
 H        -4.8698046427      -10.1906642043       -4.8837330914
 H        -6.5321737613      -10.3121589869       -4.0984317474
 H        -5.6066759540       -8.8696801972       -3.9305848482
 H        -7.6786044727       -8.2103146205       -4.5108007756
 H        -8.6104563188       -8.9302954252       -5.8335361947
 H        -7.6171321356       -7.5189753653       -6.0769177539
 H        -1.7994453512       -8.6434679546      -12.7246308766
 H        -2.2221928715       -7.0788743715      -12.2265033537
 H        -3.3545890580       -8.0048563686      -13.0588044261
 H        -2.7933482505      -10.6535455837      -11.9658556809
 H        -4.4721646330      -10.2860520687      -11.2704181650
 H        -2.9965711029      -10.6887733502      -10.2807076733
 H         2.9328235307       -4.6065528875       -8.7192957729
 H         2.0015344933       -5.2052212126      -10.1910125702
 H         3.6612680246       -5.9393243590       -9.8338445655
 H         2.4640363269       -8.3208107680       -7.2302955613
 H         3.5801772650       -6.8407047503       -7.1033640910
 H         3.7280461730       -7.9767785437       -8.5103961481
 H        -1.3257600816       -3.1662203632       -4.1096891181
 H        -2.9797599579       -2.7825894648       -3.8304504408
 H        -2.1766131373       -2.0328981737       -5.0817083262
 H        -2.2100353128       -5.3454801023       -4.0126644481
 H        -2.6176247387       -6.2961911205       -5.3995886316
 H        -3.9657989999       -5.6795985062       -4.6064965648
 H        -6.0817917766       -0.2256946786      -11.1363230064
 H        -6.5931396294        0.1578214434       -9.6408674113
 H        -6.4104049645       -1.4957002707       -9.8534129296
 H        -2.4920281206       -1.1966506543      -10.2919051330
 H        -3.4153497614       -0.2689997833      -11.4868634007
 H        -3.9885039392       -1.8692983080      -10.9560391935
 H        -1.7708596587        5.6616293224       -7.0012177496
 H        -3.4474353358        5.7918634192       -7.3625058094
 H        -2.5848463273        7.2087342695       -7.6055932510
 H        -4.3347332497        6.5615731248       -9.7835900235
 H        -3.0836853460        6.6025077861      -11.0763160641
 H        -3.1715338850        7.7782499523       -9.8935802957
 H         6.0102346957        7.7626525766       -8.8450782933
 H         5.8176860511        6.4584062715      -10.0418522125
 H         5.0175642464        6.5091644800       -8.4071557891
 H         4.7690677359        9.8888241679       -9.9081575076
 H         3.8859920051        9.4242732902       -8.4960336922
 H         3.0763270138        9.8490349098      -10.0353748885
 H         5.4732219280        3.4714715424      -17.0026358527
 H         4.0845650248        2.3922343226      -16.9313162827
 H         5.2272415656        2.4535356661      -15.5493295409
 H         4.0986923781        6.4603393511      -15.9067608298
 H         2.8814671340        5.6836257514      -16.9797703149
 H         4.6617526792        5.4046171897      -17.2053012419
 H        -3.1052918206        2.9835386304      -14.2871853848
 H        -3.1161114643        1.5356821981      -15.1818266307
 H        -4.0772968019        2.7745807230      -15.7735047643
 H        -1.3085545173        1.4704193910      -17.3035607773
 H        -0.7013889382        3.0580703959      -17.8329346982
 H        -2.3645267869        2.7008846228      -18.0373563333
 H        -1.9205193047        9.4612893382      -16.4453603709
 H        -0.4867279124       10.1078730707      -15.6352030581
 H        -2.1325958230       10.7119309327      -15.1476587771
 H        -0.5629039354        8.1845201211      -12.3577941781
 H        -1.0812968759        9.8881456584      -12.4763898104
 H         0.3076927309        9.3800161256      -13.4396884719
 Na       -1.4822125821        5.2445919912      -12.8244853021
 Na       -3.6227137303       -6.3060013394       -8.1055562780
