232

 C        -3.9503954508        9.1859279438      -13.5664097316
 C        -2.7863661928        8.2021750045      -13.6958431239
 O        -3.0398991059        7.1116858352      -13.2619709125
 C        -1.3215391590        8.6009295264      -14.2209321900
 C        -0.8508971464        7.3744680338      -14.9973371176
 O        -0.1799913036        6.5918265037      -14.2686173526
 C        -1.1198693876        7.1569839928      -16.4197659541
 C        -1.1213446783        5.6020715764      -16.9156001333
 C        -1.8643084855        4.6823661247      -15.9253056728
 O        -2.6099373479        5.2165409100      -15.1672305322
 C        -1.8140447014        3.0341995812      -15.9010472794
 C        -0.5611331581        2.8106192111      -15.0133323619
 O        -0.5541615128        3.2534791775      -13.8650029013
 C         0.5527136331        1.7826762924      -15.4459796601
 C         2.0723570140        2.1731560711      -15.2167491059
 C         2.4157955855        3.6468245327      -15.6117921923
 O         1.4728045715        4.3803184311      -15.8780210562
 C         3.8772872697        4.1468707833      -15.6534028039
 C         4.3918791645        4.4584351070      -14.1071087015
 O         5.1327164351        3.7458996010      -13.5120632227
 C         3.6432632328        5.7053106369      -13.3839612562
 C         4.1298771373        6.0196039706      -12.0421298875
 C         3.6660323358        7.3171890671      -11.3171780339
 O         3.0777993012        8.1669429958      -11.9639212173
 C         4.0032837878        7.6728870040       -9.8151303696
 C         2.7479667744        7.0295467010       -9.1872998773
 O         2.7966595240        6.1884546939       -8.3476923584
 C         1.3001021134        7.3736254541       -9.8354088936
 C         0.1283443111        6.9163634439       -8.9550171552
 C        -0.9674060839        6.2359633486       -9.8678482688
 O        -0.6865414508        6.0254082731      -11.0188017677
 C        -2.3506165732        5.7750461618       -9.3297901682
 C        -2.5601369096        4.2377196592       -9.7599241143
 O        -2.7207263928        4.0235273869      -10.9310071168
 C        -2.7297962754        3.1135185973       -8.5884117979
 C        -2.8732468392        1.7561062893       -9.2810826643
 C        -4.2547813412        1.2177444501       -9.0960548111
 O        -5.1772058493        1.8425826307       -8.6486455535
 C        -4.4636822331       -0.3321846021       -9.5173773685
 C        -4.2424220799       -1.0548992908       -8.1462715261
 O        -3.1146993602       -0.9804058036       -7.6285228077
 C        -5.3954429213       -1.6704004714       -7.3483291686
 C        -4.7160380798       -2.2745914323       -6.0644118680
 C        -4.1023515478       -3.6614762553       -6.2590438528
 O        -4.7044442485       -4.3922985447       -7.0231493140
 C        -2.6887718792       -3.9439090417       -5.6435915080
 C        -1.6378937709       -4.2613753064       -6.7432523704
 O        -1.8691733247       -4.8474521313       -7.7736589863
 C        -0.1951991607       -3.8269406674       -6.5069296293
 C         0.7001291688       -4.4012720509       -7.5726349378
 C         1.1734076527       -5.8076584762       -7.2891578320
 O         1.0963010138       -6.2915909996       -6.1963499245
 C         1.9445327492       -6.5776843395       -8.3812448165
 C         0.9191965793       -7.2963992690       -9.3030831906
 O         0.2747538611       -6.5879062181      -10.0810285138
 C         0.4376968801       -8.7366772645       -9.1480872927
 C        -0.6716060000       -9.2066483766      -10.0831776040
 C        -1.9373923484       -8.4914647401       -9.8444232888
 O        -2.0723715813       -7.8326361285       -8.7860723256
 C        -3.1222479073       -8.7426264519      -10.8889585003
 C        -4.3419497356       -7.9981699228      -10.2062330702
 O        -4.3615457094       -6.8031446048      -10.1489284559
 C        -5.3226847278       -8.8963965141       -9.3854522122
 C        -6.1062167794       -8.1007357397       -8.3523622371
 C        -5.6138960930       -8.2912158999       -6.9124008110
 O        -4.5676288243       -7.8243247652       -6.4857630374
 C        -6.4768991858       -9.2083179268       -6.0117540129
 C        -6.6167954846      -10.6515398125       -6.8038518211
 O        -5.5600111656      -11.0271709563       -7.3240441862
 C        -7.8518039409      -11.5962403046       -6.6550968904
 C        -8.1778208916      -12.2272967862       -7.9785162531
 C        -8.5529539359      -11.1485443360       -9.0471108982
 O        -7.6661613941      -10.6418743263       -9.7436529549
 C       -10.1468060917      -10.7001069490       -9.2696912974
 C       -10.2996035979       -9.4040607049       -8.5307655625
 O        -9.6438568783       -9.2115685612       -7.5419903497
 C       -11.3132123161       -8.3081212172       -8.9247755710
 C       -12.0422949653       -7.6005192629       -7.7113019252
 C       -13.4827551402       -7.2976197044       -7.9764679059
 O       -14.0422930602       -7.6996413844       -8.9549761386
 C       -14.3156890617       -6.5491978022       -6.9202478574
 C       -15.3274986869       -7.5995048220       -6.3903978843
 O       -14.8315554558       -8.3981376312       -5.6146796764
 C       -16.8451722944       -7.5197247836       -6.7879145927
 C       -13.4641903760       -6.1545937048       -5.6286705564
 C       -14.8738756833       -5.3201281555       -7.7081881332
 C       -10.5624114121      -10.6542285256      -10.8200465329
 C       -11.1152909801      -11.5838145404       -8.4076648188
 C        -5.7670420361       -9.5721946934       -4.6893468618
 C        -7.7237417614       -8.3803064925       -5.6221350304
 C        -2.7626731198       -8.0831562033      -12.3253100274
 C        -3.3237326117      -10.2651472215      -11.0198981697
 C         2.6923950185       -5.6136044692       -9.3639804894
 C         2.9258772408       -7.5451218230       -7.6915628510
 C        -2.2525897129       -2.9661915682       -4.4818553358
 C        -2.8348607548       -5.4323757428       -4.9298737350
 C        -5.7858078124       -0.3735974396      -10.1147478803
 C        -3.4827458335       -0.9283841527      -10.5345376331
 C        -2.3750029423        5.9815879727       -7.8368727846
 C        -3.3003301015        6.6859241587      -10.0781426330
 C         5.4054368911        7.2482432998       -9.4020260347
 C         3.9904749779        9.2031640669       -9.7655798443
 C         4.6410366013        3.0167540757      -16.2687877157
 C         3.9797489612        5.5693855110      -16.3946330970
 C        -3.1614620860        2.4905805182      -15.3431330769
 C        -1.6652108710        2.4559347160      -17.3850998511
 C        -1.3868656927        9.8403322022      -15.0781366665
 C        -0.4018712067        8.9681465890      -12.9906730005
 H        -4.3245870802        9.7418186443      -14.4230677734
 H        -3.7345265389        9.9083247433      -12.7979813290
 H        -4.8117000448        8.6525384791      -13.1857557134
 H        -0.5022404496        7.7601531913      -17.0585785537
 H        -2.1402375723        7.5616439929      -16.6449784382
 H        -0.0854270864        5.2025072719      -17.0408623400
 H        -1.5449103733        5.6284716934      -17.8905649271
 H         0.4738070565        1.3759122771      -16.4639947242
 H         0.3030312027        0.9120823496      -14.8486831074
 H         2.8185768897        1.3898403348      -15.4732646422
 H         2.1654002325        2.2028366786      -14.1240747228
 H         2.5953197606        5.4094677212      -13.3906608286
 H         3.6380508199        6.5466563013      -14.0262002563
 H         5.2381295661        6.0062778497      -12.1445900402
 H         4.0525409277        5.1103892998      -11.4070229689
 H         1.1714638735        6.7571256173      -10.7759134594
 H         1.0702106714        8.3209685959      -10.2475224412
 H        -0.4337453932        7.7932891894       -8.5946614112
 H         0.3504650777        6.2508888924       -8.0821186852
 H        -3.4688719609        3.1754327457       -7.8385630320
 H        -1.7995850864        3.1366515670       -8.0370173847
 H        -2.2453740009        1.0652154433       -8.7943300721
 H        -2.5663872811        1.8790140044      -10.3105428500
 H        -5.9427961764       -2.2936774082       -7.9258537581
 H        -6.1804944133       -0.8350720116       -7.0418737240
 H        -5.5281009892       -2.4539671008       -5.3824335204
 H        -4.0548375487       -1.6217646756       -5.4322591245
 H         0.1321778596       -4.2791880244       -5.5171515044
 H        -0.1590844296       -2.7398704195       -6.3689336381
 H         1.5591237947       -3.7798429617       -7.7775228403
 H         0.1172373790       -4.4475035918       -8.5066768000
 H         0.0044396629       -8.7623305766       -8.1616801432
 H         1.2566456461       -9.4514554600       -9.1470070323
 H        -0.7387560602      -10.2520961297       -9.9652876432
 H        -0.3705689971       -8.9130080790      -11.0881502725
 H        -4.7875794140       -9.7690833293       -9.0034198296
 H        -6.1630902117       -9.2338051888      -10.0808533214
 H        -7.2007359932       -8.4713593746       -8.3083663911
 H        -6.1076942458       -6.9897645853       -8.6677667321
 H        -8.7057614612      -11.0628857428       -6.2697647669
 H        -7.6011183726      -12.3002266873       -5.8513880426
 H        -9.0779591310      -12.8674820662       -7.8651437848
 H        -7.4016737621      -12.8681518415       -8.3596914321
 H       -12.1202304006       -8.5493313327       -9.5930798962
 H       -10.8623756413       -7.3728462214       -9.3291064976
 H       -11.4429341510       -6.9016429751       -7.2099258423
 H       -12.1118900218       -8.4072338505       -6.9338633181
 H       -17.1813179830       -6.5393363583       -6.4163251126
 H       -17.4149222290       -8.3313510288       -6.4162236450
 H       -16.7809015352       -7.5436387474       -7.8895916097
 H       -12.6704850514       -5.4784454508       -5.9369925925
 H       -13.1039512995       -7.1080816903       -5.3078976462
 H       -14.0568355124       -5.7485190795       -4.7944424046
 H       -15.5545671530       -4.7139196588       -7.1340683791
 H       -15.4274092982       -5.7097574942       -8.6508012950
 H       -13.9972713865       -4.8443401459       -8.0862742487
 H       -11.2235090220       -9.8778037957      -11.0822009352
 H       -11.2226981939      -11.5186187652      -11.1348289274
 H        -9.6170269216      -10.6131253348      -11.3852115759
 H       -11.0615217794      -11.1664463123       -7.4302015447
 H       -10.9897552991      -12.6157963854       -8.3140066888
 H       -12.1654133419      -11.2643862523       -8.6904207885
 H        -4.7122416028       -9.8287510426       -4.9475111560
 H        -6.3044376170      -10.4014942745       -4.1891488652
 H        -5.7482085042       -8.7039233979       -3.9255792105
 H        -7.6609439864       -8.1465305839       -4.5653896476
 H        -8.6362224941       -8.9276904362       -5.8273006572
 H        -7.6329624344       -7.4378835042       -6.1682757281
 H        -2.1160755346       -8.6768059790      -13.0154622999
 H        -2.1556724370       -7.2092689333      -12.1500819028
 H        -3.5593660686       -7.6929021571      -12.9614396313
 H        -2.3948275535      -10.6992308300      -11.5389212876
 H        -4.1547661184      -10.2657411144      -11.6348350186
 H        -3.3856901406      -10.8682793125      -10.1065241223
 H         3.5762092343       -5.3184819435       -8.8005423109
 H         2.1427591787       -4.7184420617       -9.6274497390
 H         2.8986225732       -6.1691588017      -10.2748749333
 H         2.3809706430       -8.1830637880       -6.9906631489
 H         3.5983001998       -6.8822583274       -7.1964315387
 H         3.4622548146       -8.1406334291       -8.4743023040
 H        -1.5747413153       -3.3900180749       -3.7501384706
 H        -3.0840236461       -2.5819778855       -3.9310477577
 H        -1.7612742711       -2.0330391423       -4.7882824832
 H        -1.9517414967       -5.4890823894       -4.3652484961
 H        -2.8276123035       -6.1961913997       -5.6775918108
 H        -3.7707908372       -5.5429511529       -4.4478583974
 H        -5.9899123405        0.2997338654      -10.9199913623
 H        -6.4459672481        0.0160154069       -9.3322773280
 H        -6.1039276748       -1.3576929169      -10.2879953914
 H        -2.5485950424       -1.2716960940       -9.9701353141
 H        -3.1733193826       -0.1373250754      -11.2570132952
 H        -3.8695037498       -1.7794946379      -11.1136398269
 H        -1.6824730067        5.2797145515       -7.4255986182
 H        -3.3838829089        5.7797957320       -7.3633039894
 H        -2.2156879854        7.0302493952       -7.5531878517
 H        -4.3219155582        6.5476114164       -9.7545710149
 H        -3.1816724489        6.7391613082      -11.1652065706
 H        -3.1070400003        7.7105357975       -9.6847972272
 H         5.9713762056        8.1046964822       -9.2995619179
 H         5.8884869000        6.6958347578      -10.1707248698
 H         5.4962127372        6.8506008132       -8.3577293230
 H         4.8632631795        9.6494511824      -10.2192760936
 H         4.0694593474        9.6438931831       -8.7296639554
 H         3.1530967846        9.6869116365      -10.2829301270
 H         5.6055183154        3.4941195959      -16.5141580978
 H         4.2592912803        2.4396897524      -17.0755612223
 H         4.8797691863        2.3249997294      -15.4629057382
 H         3.9109411610        6.5171778194      -15.8027233647
 H         3.1366034812        5.6620733707      -17.1368198504
 H         4.9016519192        5.6644735640      -16.9712334644
 H        -3.2902250375        2.6051606265      -14.2368512045
 H        -3.4404034190        1.4533898517      -15.5079052722
 H        -3.9678437166        3.1216050985      -15.8031952120
 H        -1.6006728665        1.3084792205      -17.3645458260
 H        -0.8308672102        2.7802739936      -17.9955101027
 H        -2.5604983979        2.7138100144      -17.9900916575
 H        -1.9659084593        9.8436633470      -16.0154124030
 H        -0.3390646353       10.0674037476      -15.4464700788
 H        -1.7227547749       10.7061874970      -14.4304477760
 H        -0.1358957627        8.0502906836      -12.4150292065
 H        -0.8412035662        9.6542362576      -12.2787835135
 H         0.4709972612        9.4249008011      -13.4058860374
 Na       -1.5098659855        5.2325692501      -12.8926291287
 Na       -3.5945406070       -6.2292235758       -8.1664328085
