232

 C        -3.7898696120        9.1665382413      -13.6102871632
 C        -2.6817716539        8.1977878317      -13.5769428019
 O        -2.8995045549        7.0575181432      -13.1462243002
 C        -1.2298110538        8.5784822125      -14.0665534873
 C        -0.7131785016        7.3081449145      -15.0072652710
 O        -0.1924644105        6.3916759600      -14.5047281590
 C        -1.2494717369        7.1222483193      -16.4476884445
 C        -1.1691646733        5.6929408781      -16.9307809046
 C        -1.8691637097        4.7045338872      -15.8773963514
 O        -2.7246993191        5.1056026782      -15.1084730424
 C        -1.7218188104        3.0647729418      -15.9043765953
 C        -0.4094885920        2.7788594500      -15.0798794469
 O        -0.4663354640        3.0186532177      -13.8926808463
 C         0.6561119307        1.8915486383      -15.6339477279
 C         2.0402652166        2.2923520823      -15.2798988377
 C         2.3735626150        3.6951798769      -15.7507660651
 O         1.5572456065        4.4631701815      -16.1893252743
 C         3.8458070661        4.2214171220      -15.5923024610
 C         4.1488083219        4.3707932830      -13.9723316045
 O         4.8874682004        3.6035084296      -13.4178312183
 C         3.4344989369        5.5162966409      -13.2952617448
 C         4.2979167524        5.8982814154      -11.9700317992
 C         3.7698762623        7.1740983713      -11.4446564491
 O         3.0724443835        7.8168078182      -12.2147972352
 C         3.8793570594        7.7025497232       -9.9551500757
 C         2.6728834773        7.1539602564       -9.2223595723
 O         2.8728907867        6.3404723792       -8.3118746789
 C         1.3506190670        7.5601668355       -9.6092273997
 C         0.1119019797        6.8638856057       -9.0013181934
 C        -0.8422526618        6.1821894591      -10.0121856120
 O        -0.5484553250        6.0534403024      -11.1697579039
 C        -2.1937901948        5.6626713073       -9.3785744624
 C        -2.5442435130        4.2335479548       -9.8985745260
 O        -2.6637950836        3.9926892133      -11.1019369432
 C        -2.6825785170        3.2441381017       -8.7806026955
 C        -2.8185316291        1.7729725593       -9.2301315614
 C        -4.2720908492        1.2928121368       -9.2727935592
 O        -5.1287909732        2.0109919514       -8.7573993637
 C        -4.5449392705       -0.1986347955       -9.5043737621
 C        -4.1998491137       -0.9994059790       -8.2133361760
 O        -3.0795540190       -1.0908890795       -7.7685013918
 C        -5.3078552010       -1.6412129248       -7.3305626585
 C        -4.7582329557       -2.2489886876       -6.0745891200
 C        -4.0349192897       -3.5277837444       -6.3170345512
 O        -4.6835392085       -4.3110769478       -7.0244832650
 C        -2.6843267173       -4.0047483263       -5.5958785293
 C        -1.5437229502       -4.1564847046       -6.7936188673
 O        -1.8487523618       -4.7178495228       -7.8623082109
 C        -0.1265138545       -3.6317398929       -6.4731663640
 C         0.9488208635       -4.1751459956       -7.4942868706
 C         1.2544902347       -5.6745509440       -7.2456317210
 O         0.9029080369       -6.1784599532       -6.1761977872
 C         1.9466065674       -6.5747330368       -8.3959398841
 C         0.8372265610       -7.1948127301       -9.3364531304
 O         0.2722140095       -6.5879774888      -10.1875450692
 C         0.5476571420       -8.6876525707       -9.0814709407
 C        -0.6078744916       -9.1951507740      -10.0235015886
 C        -1.9823498629       -8.5266884065       -9.6923448042
 O        -1.9302227181       -7.6306792984       -8.9012333526
 C        -3.1371094302       -8.7705168597      -10.8288241378
 C        -4.4445271585       -8.1191863229      -10.1694986475
 O        -4.6763078214       -6.9054776540      -10.3773555440
 C        -5.4421144441       -8.8830712028       -9.3271606459
 C        -6.3534128190       -8.0446351213       -8.3418861440
 C        -5.7513962606       -8.1356074078       -6.8863671523
 O        -4.6814613743       -7.5806421844       -6.6171738381
 C        -6.3392694625       -9.1171670209       -5.8817861525
 C        -6.5138395155      -10.4693214067       -6.6709921902
 O        -5.6080387699      -10.9798450661       -7.2700554770
 C        -7.9223380587      -11.2892199040       -6.6661379130
 C        -8.0236447380      -12.1039003074       -7.9546485908
 C        -8.5959597368      -11.1063067369       -9.0714584826
 O        -7.9316226349      -10.5785732244       -9.9203478038
 C       -10.0780474716      -10.7622026294       -9.2275748771
 C       -10.4150384278       -9.3359661306       -8.5089709141
 O        -9.8878439711       -9.1096003597       -7.4128835084
 C       -11.3379479089       -8.4284242657       -9.1432985215
 C       -11.9532649314       -7.4464988629       -8.0185112468
 C       -13.4938157250       -7.3154648792       -7.9853184173
 O       -14.0620926866       -7.7676794767       -8.9974577895
 C       -14.2709434858       -6.6139252380       -6.7555169639
 C       -15.3751663102       -7.7374832173       -6.1252654584
 O       -14.9605901520       -8.5357776214       -5.3594868581
 C       -16.8156316185       -7.5433601217       -6.6221283164
 C       -13.3041524743       -6.0527750621       -5.7379625834
 C       -15.0576896072       -5.4380030819       -7.2925952825
 C       -10.3622247718      -10.7853920175      -10.8256504060
 C       -11.1030240876      -11.8027860216       -8.6563468790
 C        -5.4318986629       -9.4342959876       -4.6661748310
 C        -7.6715851043       -8.5343569772       -5.4384938743
 C        -2.9744243559       -8.0222283838      -12.0956963627
 C        -3.3394088642      -10.2854261200      -10.9462142374
 C         2.9181502378       -5.8380212269       -9.3484715473
 C         2.6774487827       -7.7306698165       -7.7291497879
 C        -2.2413884606       -2.9477740079       -4.5053492277
 C        -2.8405665519       -5.4489318220       -5.0514909836
 C        -5.9561776305       -0.4712782675      -10.0903873263
 C        -3.4231674782       -0.6256265138      -10.5652925474
 C        -2.2773375806        5.7955098177       -7.8726861357
 C        -3.4389821534        6.5032910922       -9.8934403849
 C         5.2062007629        7.0994207996       -9.3226918923
 C         3.8495153826        9.2492474210       -9.7749811712
 C         4.9581440939        3.1259836384      -15.8935292627
 C         4.0975404545        5.3458375457      -16.6111073655
 C        -2.9008928850        2.5150887567      -15.1057983972
 C        -1.6117154786        2.6571973474      -17.3907897071
 C        -1.2810345418       10.0173516727      -14.7326308287
 C        -0.3124503316        8.5954352572      -12.8708077252
 H        -3.9553743012        9.4368196228      -14.6561932045
 H        -3.6788110270       10.0606286943      -12.9932291816
 H        -4.7380525127        8.7762208878      -13.2366833807
 H        -0.6679170309        7.7466572082      -17.1692344676
 H        -2.2064948863        7.5256736887      -16.6234420343
 H        -0.1591725033        5.4903647400      -17.2768901778
 H        -1.9009478679        5.6198164546      -17.8056268209
 H         0.5892488010        1.4978264737      -16.6358542590
 H         0.4071930411        0.9736575016      -15.0534702185
 H         2.7908902591        1.6209824084      -15.6111012270
 H         2.0668099026        2.2291287656      -14.1853368773
 H         2.3931426074        5.1724511504      -13.1301274145
 H         3.2872080195        6.3711091103      -13.9926280626
 H         5.3627920064        5.9785867731      -12.2216142491
 H         4.3635656115        5.1627970858      -11.1640071103
 H         1.3231732026        7.7070794295      -10.6719933977
 H         1.2221885631        8.6532252203       -9.3215701527
 H        -0.4212186759        7.5282266950       -8.3060559880
 H         0.4440542666        5.9816927347       -8.4284368783
 H        -3.7018557767        3.4023655869       -8.2637405491
 H        -1.9891121043        3.4019456064       -7.9219253520
 H        -2.2243568698        1.0771506091       -8.5642785638
 H        -2.4070545383        1.7639701926      -10.2733439354
 H        -6.0038379832       -2.3338226718       -7.9713691386
 H        -5.8907054936       -0.8458919719       -7.0605675764
 H        -5.5688234986       -2.4563580580       -5.3186551688
 H        -4.1066254624       -1.6407647388       -5.5361113440
 H         0.1555690331       -3.7249386817       -5.4431643507
 H        -0.2851407934       -2.5412109481       -6.6622011187
 H         1.8815498065       -3.5642532412       -7.2772741238
 H         0.5736311115       -3.9438456680       -8.5107497082
 H         0.2996642804       -8.7761718366       -7.9606443654
 H         1.4163225597       -9.2999073067       -9.1462196355
 H        -0.7163508596      -10.3356328685       -9.8989146034
 H        -0.2045717764       -8.9491398793      -11.0085993072
 H        -4.8620989666       -9.6495109164       -8.7946867689
 H        -6.1544378232       -9.3480768756       -9.9613376736
 H        -7.3192785476       -8.4310818973       -8.3820896600
 H        -6.4149679600       -7.0303112030       -8.5975366714
 H        -8.7254008602      -10.5372677637       -6.4786337438
 H        -7.9080982610      -11.9402231604       -5.7774222543
 H        -8.6511101795      -13.0247144855       -8.0144504424
 H        -6.9443889804      -12.4264149024       -8.1772413005
 H       -12.2620140262       -8.9153921013       -9.4945455273
 H       -10.9157231584       -7.8265829830       -9.9030172200
 H       -11.6240348519       -6.3334467845       -8.1525214641
 H       -11.5005218068       -7.6889985351       -7.0472765862
 H       -17.1183596191       -6.6729446446       -6.0572754189
 H       -17.2795622915       -8.4696867458       -6.2150205273
 H       -16.8656769113       -7.4052817804       -7.6869913837
 H       -12.5699923737       -5.4725421365       -6.2634471751
 H       -12.8938172536       -6.8604010427       -5.1100199972
 H       -13.8128883437       -5.2623249604       -5.2034679472
 H       -15.7761524516       -5.0708354660       -6.5640918343
 H       -15.5314579766       -5.7483139704       -8.1307761069
 H       -14.3181610463       -4.6786403426       -7.6142288482
 H       -11.4576817836      -10.5787443147      -10.9074902212
 H       -10.2403430189      -11.6991973880      -11.3168620769
 H        -9.7251560893      -10.0026960894      -11.2727111257
 H       -10.6954592301      -12.2552332931       -7.7445668511
 H       -11.1578660619      -12.6940304285       -9.3287352083
 H       -12.0277574221      -11.3840717123       -8.4807921885
 H        -4.5204024220       -9.9933992414       -4.9134598029
 H        -6.0678979942       -9.9796053510       -3.9508252272
 H        -5.1771792321       -8.5097907241       -4.2274567689
 H        -7.4544085549       -7.4673500117       -5.1664538735
 H        -7.9720738791       -9.1236640806       -4.5405896858
 H        -8.3462697355       -8.5569484009       -6.2727619954
 H        -2.3533336814       -8.5548210629      -12.7835487901
 H        -2.6153167739       -6.9708308734      -12.1902344198
 H        -3.9412471416       -8.1310866560      -12.6226193934
 H        -2.4325209228      -10.7600254944      -11.0624377371
 H        -4.0678074577      -10.5315436733      -11.7709010974
 H        -3.5733627455      -10.5889272539       -9.9374175562
 H         3.9223418922       -6.1738946953       -9.3143673347
 H         3.0264513256       -4.7493989741       -9.0957226104
 H         2.4761539124       -5.7984838906      -10.3471684400
 H         2.0229450728       -8.1840533482       -7.0079275131
 H         3.5980319056       -7.3803013145       -7.2663312457
 H         2.9334499480       -8.3718606106       -8.4954260477
 H        -1.2839513809       -3.1854284330       -4.0116274796
 H        -2.9657239741       -2.8920195228       -3.6770307143
 H        -2.1347276097       -1.9022327780       -4.7899312127
 H        -2.0024048132       -6.1240962113       -5.3198957646
 H        -3.8118089842       -5.7771063603       -5.4954853569
 H        -3.0191309751       -5.3901958973       -3.9238081748
 H        -6.1994648682        0.4958675112      -10.5929514653
 H        -6.7763779653       -0.5704826059       -9.4146664771
 H        -6.0124277752       -1.3018792893      -10.8656955950
 H        -2.4438547149       -0.5757967302      -10.2052101534
 H        -3.5835257668       -0.1233114943      -11.5138348984
 H        -3.6431148334       -1.6869859162      -10.7417450835
 H        -1.3780521845        5.3338208308       -7.3335382400
 H        -3.2203492954        5.4726244906       -7.5026267959
 H        -2.3614139467        6.8419321007       -7.5906130511
 H        -4.3566495469        6.1827401869       -9.3152732350
 H        -3.5711929067        6.2984623465      -10.9867193690
 H        -3.4543821816        7.5701687800       -9.7356222335
 H         6.1623121524        7.5288649567       -9.7893578083
 H         5.2673303674        6.0551548296       -9.6486693434
 H         5.2409445552        7.3112656538       -8.2945632234
 H         4.5226810657        9.7335521766      -10.4794023016
 H         4.3573916446        9.6279995799       -8.8807478485
 H         2.9414516057        9.7670292621       -9.9224737025
 H         5.8606212363        3.4452020536      -15.4090996409
 H         5.0513269602        2.9872193382      -16.9992355267
 H         4.7075638250        2.0804214308      -15.7029251829
 H         3.3866787485        6.0963790819      -16.5165459206
 H         4.1135889210        5.0369549024      -17.5952515499
 H         5.0359333289        5.7610546206      -16.3324803379
 H        -2.8718353173        2.8824701077      -14.0746998921
 H        -2.9499301431        1.4433020559      -14.9406941467
 H        -3.8500451144        2.8388797498      -15.4944267423
 H        -1.5535911178        1.6332582686      -17.6267255911
 H        -0.7252067916        3.0889506804      -17.8699253781
 H        -2.4161285753        3.1276981828      -17.9272038805
 H        -2.1280358991       10.0608635894      -15.3748119308
 H        -0.5399328094       10.2069697379      -15.4317206650
 H        -1.2553075023       10.8116246437      -14.0612723751
 H        -0.2823831297        7.5713443189      -12.4870914550
 H        -0.6834404857        9.2931777962      -12.0912523864
 H         0.7226382773        8.8921094411      -13.1110768715
 Na       -1.8143644527        4.8929380390      -12.9860182041
 Na       -3.7311323190       -6.1669677335       -8.0591141717
