232

 C        -3.3980309768        9.2465127595      -13.7111478084
 C        -2.4064988008        8.1873175108      -13.5426477753
 O        -2.6962276868        7.1274287799      -12.9813959605
 C        -1.0065951876        8.5054103547      -14.1234772295
 C        -0.8362591452        7.1416137532      -15.0000139049
 O        -0.0895345750        6.2739182766      -14.5012059161
 C        -1.4467959155        7.0873161396      -16.3939259289
 C        -1.6902782891        5.6063868372      -17.0045959286
 C        -2.2004594653        4.5600231443      -15.9570059308
 O        -2.8287892268        4.8731910184      -14.9634052256
 C        -1.7591340554        3.1367759474      -16.1972247983
 C        -0.3628496276        3.0495358012      -15.4003715194
 O        -0.1877907596        3.5868192075      -14.3090974412
 C         0.6229940174        1.9508749756      -15.8168151815
 C         2.1195210823        2.4173325243      -15.4466582493
 C         2.7774911292        3.5701159201      -16.0602470553
 O         2.2849688978        4.3127209142      -16.9231887593
 C         4.1125301341        3.8982636701      -15.3892366365
 C         3.8814600568        4.0922595640      -13.8658184375
 O         4.3059336099        3.1049703710      -13.2537488190
 C         3.2469636920        5.2915426069      -13.2755472689
 C         3.8933567877        5.7950698512      -11.9250681295
 C         3.5867329652        7.2553292377      -11.7132424505
 O         2.8388397110        7.8995580036      -12.4426786286
 C         3.9596961668        7.7110250367      -10.2231746957
 C         2.6269073361        7.0347461243       -9.2986360091
 O         2.7965625391        6.4756998871       -8.2717099637
 C         1.2221567819        7.5741383577       -9.8033524439
 C         0.0863090656        7.1992839754       -8.8022363461
 C        -0.8336466563        6.1494484028       -9.5216951461
 O        -0.4138269478        5.7112155231      -10.6073264172
 C        -2.2044669521        5.5727934984       -9.1335982993
 C        -2.3963978130        4.1079351429       -9.6981512861
 O        -2.3976129675        3.8185433034      -10.9024830371
 C        -2.6060548638        2.9955000325       -8.6591591085
 C        -2.7440206400        1.5958629582       -9.3501280147
 C        -4.2521303564        1.1486013512       -9.4800177270
 O        -5.0955016556        1.9189485949       -9.1775349423
 C        -4.6204653740       -0.4171971697       -9.6604381220
 C        -4.1643593447       -1.1132497912       -8.3654671863
 O        -2.9885682719       -1.3972161603       -8.2163538682
 C        -5.1037709323       -1.2785091855       -7.1823981643
 C        -4.3185357919       -1.7924040825       -6.0212910489
 C        -3.8460397202       -3.2819301336       -6.3662805118
 O        -4.4989110437       -3.8070938940       -7.1767958570
 C        -2.4692098558       -3.8041371067       -5.7349539273
 C        -1.5361414105       -4.0508392727       -6.9948508696
 O        -1.8975669995       -4.5767497311       -8.0287556390
 C        -0.1695008438       -3.3482402047       -6.9277963925
 C         0.8967332169       -4.1140169594       -7.7645412907
 C         0.9981426644       -5.5734482337       -7.3554721303
 O         0.3047054280       -6.0851623528       -6.5125633667
 C         1.9699049610       -6.5650458119       -8.1793290174
 C         0.9199416991       -7.2170659641       -9.2342438023
 O         0.6505713681       -6.6047960379      -10.2656669246
 C         0.2698058207       -8.5885877137       -8.8594074742
 C        -0.7269578036       -8.9751029757       -9.9750139192
 C        -2.0039782234       -8.3095578867       -9.6082901850
 O        -2.2070487629       -7.4954051507       -8.7223859197
 C        -3.3105104582       -8.5808752023      -10.5687932343
 C        -4.6108604577       -7.9950157065       -9.8973512705
 O        -4.9617581397       -6.8170523778       -9.9496892418
 C        -5.6697930677       -9.0155264231       -9.2604625159
 C        -6.5815287445       -8.1708875715       -8.2998787022
 C        -5.7588022354       -8.0198967315       -6.9543407040
 O        -5.0680609875       -7.0679224610       -6.7398080948
 C        -6.0257712167       -9.0977731383       -5.7294651043
 C        -6.4668269829      -10.4313185297       -6.3732299017
 O        -5.6273044805      -11.2677171016       -6.6695471205
 C        -7.9150468324      -10.6951187703       -6.6591175347
 C        -8.1401779185      -11.6962968843       -7.8067503159
 C        -8.7923256263      -11.0699163146       -9.0543394544
 O        -8.0732420596      -10.5414410912       -9.9456043159
 C       -10.3558492139      -10.9114234463       -9.3799697704
 C       -10.8823592204       -9.5500476027       -8.7233744072
 O       -10.4154163485       -9.1732860013       -7.6928531462
 C       -12.0762122173       -8.7627745804       -9.3921841732
 C       -12.3363873520       -7.5440437444       -8.4350490232
 C       -13.7809978222       -7.4465014877       -8.0154940716
 O       -14.6729639621       -7.9398027331       -8.6452199904
 C       -14.1635437869       -6.7429062116       -6.6449209442
 C       -15.0670425858       -7.8321648698       -5.7737721180
 O       -14.4418116658       -8.5639991813       -4.9811209205
 C       -16.5008533649       -8.2212310518       -6.3450463879
 C       -12.9080213334       -6.1667703489       -5.8244790265
 C       -15.0141392781       -5.4365386952       -6.9037717387
 C       -10.5594187986      -10.7417615845      -10.9235228983
 C       -11.2579214902      -11.9066851215       -8.7162308115
 C        -4.8556306367       -9.2658598125       -4.7571632149
 C        -7.2145593369       -8.5439449483       -4.9070864060
 C        -3.2171040192       -7.9155861127      -12.0894115244
 C        -3.3160199948      -10.1189783448      -10.8577017865
 C         2.9922515317       -5.7815463418       -8.9681219674
 C         2.6239900221       -7.6518003106       -7.2773608966
 C        -1.8819860724       -2.8988759513       -4.6044668203
 C        -2.6765555741       -5.2464185928       -5.1640159294
 C        -6.1105705425       -0.5266386296       -9.9606279087
 C        -3.9189006888       -0.9362962884      -10.9040596797
 C        -2.4055528506        5.6598227193       -7.6080236718
 C        -3.2899485761        6.3664754030       -9.9377813732
 C         5.1852536757        7.0151014927       -9.6160505109
 C         4.0183294953        9.2356224336       -9.8922960400
 C         5.1646427309        2.8748569518      -15.7013382091
 C         4.5861452550        5.2860345473      -16.0139880313
 C        -2.7714036419        2.1796153373      -15.5300573700
 C        -1.4801951157        2.7279987940      -17.6756170606
 C        -0.8974342509        9.8302891564      -14.8394190633
 C        -0.0374224354        8.4744269151      -12.9464298672
 H        -3.6887061349        9.5407445586      -14.7405064462
 H        -2.9602876408       10.1359204988      -13.2906433839
 H        -4.2177152995        9.1223413975      -13.0231252013
 H        -0.9325981942        7.7550895293      -17.1074231941
 H        -2.4150567351        7.5252133838      -16.4107382254
 H        -0.6902835216        5.2115412223      -17.3789226245
 H        -2.4357182624        5.6896306120      -17.7819911988
 H         0.5382152249        1.4315212947      -16.7968162052
 H         0.4586043930        1.1119899810      -15.1583995349
 H         2.7793790138        1.5940780597      -15.2713113480
 H         1.9086589409        2.8891047303      -14.4728667415
 H         2.1583586585        5.0163852401      -13.0426865051
 H         3.2332968982        6.1546101541      -13.9204644280
 H         4.9669307102        5.7619398462      -11.9893673481
 H         3.5636312790        5.2741812360      -10.9961902692
 H         0.9180385406        7.1916162662      -10.8242527127
 H         1.3006237725        8.6391230429       -9.9966371925
 H        -0.5684553880        8.1532665173       -8.6216178150
 H         0.4231058091        6.7837232262       -7.8763564010
 H        -3.3784776834        3.0934942232       -7.8679004642
 H        -1.6072161371        2.8933737239       -8.0564406739
 H        -2.2791244945        0.8950381850       -8.6869125340
 H        -2.0226762349        1.6698108931      -10.2813117982
 H        -5.8430613364       -1.9613585279       -7.5414267150
 H        -5.6036539476       -0.2160535368       -6.8051125337
 H        -5.0322175151       -1.7922867806       -5.2135764383
 H        -3.4586157417       -1.1590088509       -5.7145862048
 H         0.1499460545       -3.3365236677       -5.9066632811
 H        -0.3665955100       -2.2835621522       -7.1856799620
 H         1.8412103772       -3.5893073904       -7.5000568552
 H         0.5404770559       -4.0563001213       -8.7937374579
 H        -0.2060973383       -8.5497342104       -7.8401221457
 H         1.1584713353       -9.3196885090       -8.6161727806
 H        -0.7148190926      -10.0838099401      -10.1508236206
 H        -0.4329338657       -8.3680382425      -10.8651170823
 H        -5.1483708991       -9.7519598503       -8.7490975990
 H        -6.1631530615       -9.4704269102      -10.1388948772
 H        -7.5713067283       -8.5195096295       -8.1970194498
 H        -6.6514565124       -7.2340977277       -8.7584833205
 H        -8.3763133755       -9.7411486536       -6.9448184278
 H        -8.4094261998      -11.1203869986       -5.7472347219
 H        -8.7395015639      -12.5636668218       -7.4156966756
 H        -7.2720455099      -12.1324969665       -8.3280677085
 H       -12.9430599033       -9.3923388226       -9.5763228169
 H       -11.8248897016       -8.2617205828      -10.3603001091
 H       -11.8696538206       -6.6480756864       -8.8869081288
 H       -11.6608976016       -7.7228908803       -7.5346781124
 H       -17.0626784957       -7.2712413959       -6.2444527563
 H       -16.7870288429       -8.8702613569       -5.5728377158
 H       -16.4142947943       -8.6119376906       -7.3728156029
 H       -12.2406354298       -5.6928707625       -6.5065087566
 H       -12.3503736375       -6.9814382807       -5.3493760025
 H       -13.2598072022       -5.4217539784       -5.0733071886
 H       -15.2601251278       -4.9605469625       -6.0123774446
 H       -15.9123837225       -5.7085595857       -7.5387704893
 H       -14.3838405141       -4.7489384454       -7.4225424174
 H        -9.8764300774      -11.2483597007      -11.5298198102
 H       -10.5914615538       -9.6410133101      -11.1562375707
 H       -11.4804554319      -11.2609332645      -11.1202473554
 H       -11.2139877767      -11.7278832735       -7.6746578339
 H       -10.9709615011      -12.8978824379       -8.9348627878
 H       -12.3177587081      -11.8346640931       -9.1230919925
 H        -4.0076242968       -9.6273390690       -5.3318226740
 H        -5.0536779146      -10.0603387063       -4.0836955100
 H        -4.5905922928       -8.2566195396       -4.3760618206
 H        -6.7644927173       -7.9648093553       -4.0721159714
 H        -7.7979560613       -9.4074276043       -4.5342617296
 H        -7.8964777969       -7.8511129875       -5.4778791933
 H        -2.2490440623       -8.0453169454      -12.6362779064
 H        -3.2101482353       -6.8406916364      -11.9141642529
 H        -4.0280885692       -8.1226300643      -12.8382357029
 H        -2.3061440385      -10.2738585768      -11.3676585791
 H        -4.0358551940      -10.3857295878      -11.5438527653
 H        -3.4267295410      -10.6741131834       -9.9258571701
 H         3.3287267681       -6.1758366707       -9.9190192897
 H         3.8038507122       -5.5078782525       -8.3358715233
 H         2.6620882748       -4.8344455022       -9.3827316195
 H         1.8879676861       -8.0067946499       -6.5991301842
 H         3.4533127016       -7.3029404621       -6.7531799995
 H         2.9813361701       -8.3946270547       -7.9820314541
 H        -0.8255464693       -3.1420586468       -4.3924059129
 H        -2.3789012666       -2.9391980363       -3.6562016858
 H        -1.8508213200       -1.8347202239       -4.9236639957
 H        -3.7328498364       -5.4412223210       -4.8866490564
 H        -2.1995359959       -5.3698162845       -4.1824654176
 H        -2.3730986119       -5.9104548759       -5.9672789883
 H        -6.2808946708       -0.1832833635      -11.0063949670
 H        -6.5986406076        0.1422698226       -9.2054800553
 H        -6.5650861203       -1.5103286566       -9.9028658173
 H        -2.8815818262       -1.2450911544      -10.6576524196
 H        -3.9759249594       -0.2683393608      -11.7619095419
 H        -4.4086405003       -1.8847252064      -11.1634196603
 H        -1.4923078051        5.2591827830       -7.1908198323
 H        -3.2826457893        5.0537412853       -7.3115795077
 H        -2.3346314632        6.6809182425       -7.2347443767
 H        -4.2658407534        6.2221189864       -9.4158459892
 H        -3.5315646254        5.9772051956      -10.9377069183
 H        -3.0706735681        7.4704814024       -9.8942541683
 H         6.0975227648        7.4301481276       -9.9444552163
 H         5.1542604737        5.9461501357       -9.8313202298
 H         5.0097704889        6.9886022783       -8.4818705066
 H         4.8093241394        9.6819454664      -10.4658791554
 H         4.1676610957        9.5436012743       -8.8446978052
 H         3.1340548900        9.8457252068      -10.1378410659
 H         6.2270860114        3.0825317715      -15.3637751394
 H         5.0848747901        2.6222127933      -16.7561861390
 H         4.9315784947        1.9178654490      -15.2181311735
 H         4.0248247761        6.1430218112      -15.8251539644
 H         4.6802869894        5.1471413806      -17.0600105153
 H         5.5424017085        5.4247427890      -15.6770201029
 H        -2.6940216779        2.1652415504      -14.4215721559
 H        -2.5861755443        1.1722475847      -15.8735177807
 H        -3.8404259797        2.4063493087      -15.6873153640
 H        -1.5761205206        1.5921000174      -17.7441819319
 H        -0.5895833322        3.0372895804      -18.1539886331
 H        -2.3625311549        2.9970297247      -18.2233901850
 H        -1.7282317280       10.1376415203      -15.3918203388
 H        -0.0865095582        9.7315246971      -15.5502110331
 H        -0.5775329042       10.6437556295      -14.2292845604
 H        -0.0633773083        7.5651725164      -12.3253213389
 H        -0.2332411361        9.3980746220      -12.3903729906
 H         1.0003972731        8.5450215389      -13.2647959434
 Na       -1.5194587314        5.1784796632      -12.6594316131
 Na       -3.8082172074       -5.7860250505       -8.3256720968
