232

 C        -3.3337195399        9.3273275007      -13.3693757599
 C        -2.2576092274        8.3260746008      -13.4268343731
 O        -2.3477993407        7.2149213216      -12.8609641754
 C        -0.9818320220        8.6775610183      -14.5066405687
 C        -0.9177559117        7.3402357241      -15.2367502360
 O        -0.2784728965        6.4024019475      -14.7444790907
 C        -1.5928035157        7.1815264190      -16.5382016429
 C        -1.7379348247        5.6430921821      -16.9969171594
 C        -2.0994252597        4.5714134268      -15.9426538341
 O        -2.7220283321        4.9945893294      -15.0151000586
 C        -1.7977321447        3.1015929554      -16.1335661276
 C        -0.3920215260        2.9165313162      -15.5368199564
 O        -0.2119026403        3.2210956952      -14.3630188468
 C         0.7043852714        2.0498657826      -16.2048275705
 C         2.1098158422        2.0228614881      -15.5349667291
 C         2.9040938570        3.3405919378      -15.8990299758
 O         2.5994846653        3.8541173603      -16.9858169105
 C         4.3834410700        3.6018466462      -15.1544501109
 C         4.1191649855        3.9276632100      -13.6114072162
 O         3.7429244443        3.0105788344      -12.8611700805
 C         4.0370958617        5.4503573498      -13.1038606255
 C         3.1827098998        5.6419481728      -11.8609576520
 C         3.3242269773        7.1323098112      -11.4632651861
 O         3.1745469905        8.0084635574      -12.3098303381
 C         3.7675194503        7.6682225165       -9.9968171465
 C         2.6996605724        6.9688318520       -9.1228879800
 O         2.8369061978        5.8874712315       -8.5413108747
 C         1.3761056474        7.8577641337       -9.2340387920
 C         0.0757144182        7.1844634080       -8.8087915005
 C        -0.6394294564        6.2179784471       -9.7755094157
 O        -0.2231292018        6.0731893873      -10.9228572228
 C        -1.8497479843        5.3523695447       -9.2733344698
 C        -2.0544867601        4.0217502810       -9.9785620848
 O        -2.0760478359        3.8600691331      -11.1962881842
 C        -2.1923421211        2.6945557294       -9.1716012023
 C        -2.6365886310        1.4308563147      -10.0433176053
 C        -4.3218550116        1.1520548754       -9.7391199581
 O        -4.9913797308        1.9839118282       -9.2050374940
 C        -4.7396387716       -0.2840277327       -9.8751573976
 C        -4.0655589539       -1.0673957669       -8.6245342070
 O        -3.0335537769       -1.7265614709       -8.7679827861
 C        -4.7389814960       -0.9543230168       -7.2399713794
 C        -3.7565262292       -1.3752336867       -6.0852831193
 C        -3.6120964361       -2.8918451127       -6.2460468244
 O        -4.4216303544       -3.6014937729       -6.7690286992
 C        -2.2476595739       -3.5085948598       -5.8078791756
 C        -1.5352882056       -3.7496448242       -7.2165940359
 O        -2.1488858192       -4.3263370915       -8.1015274217
 C        -0.2501001259       -3.1095267458       -7.7044767042
 C         0.5457213814       -4.2488158975       -8.3780668451
 C         0.8528670425       -5.3998771648       -7.4593178486
 O         0.1645464759       -5.6612887448       -6.5006589234
 C         1.8861821115       -6.4625163911       -8.0404337395
 C         1.0637588477       -7.3053583156       -9.0357391410
 O         1.1721755073       -7.0429421808      -10.2177899581
 C         0.1038090984       -8.5219566028       -8.6260902814
 C        -0.9268416416       -8.8107990687       -9.6432088249
 C        -2.2640589246       -8.1346610637       -9.3887308741
 O        -2.4679372306       -7.3807697954       -8.4625637488
 C        -3.3726857785       -8.2718229610      -10.6027918524
 C        -4.6537992261       -7.7680362587       -9.9870788387
 O        -4.8225800048       -6.5363599173       -9.9888099022
 C        -5.7915697796       -8.6701827437       -9.3031657466
 C        -6.5962376095       -7.8710434425       -8.2729926222
 C        -5.8760146734       -7.9401517508       -6.8940122378
 O        -5.0695873160       -7.1477349958       -6.5928724873
 C        -6.1490233703       -9.2269547982       -5.8015435192
 C        -6.7300917667      -10.3554363275       -6.6020355200
 O        -6.0551010832      -11.0689653901       -7.3274141853
 C        -8.2270721426      -10.6827994402       -6.3313632368
 C        -8.7029473854      -11.7421347773       -7.3331412563
 C        -9.0650505090      -11.1424429594       -8.6857986992
 O        -8.1622977372      -10.6796922275       -9.4258747096
 C       -10.5228820558      -11.0032275509       -9.2582825940
 C       -11.0298312666       -9.6253786711       -8.7878347635
 O       -10.2487205999       -8.8700505337       -8.3104840075
 C       -12.5716753629       -9.2656232338       -9.0776552666
 C       -12.8326922306       -7.7987482767       -8.6587131258
 C       -14.2964160232       -7.6544176433       -7.9221730918
 O       -15.2821344655       -8.1232579844       -8.3945157005
 C       -14.3974203221       -6.8263452202       -6.4773819753
 C       -14.5991092506       -8.0150714898       -5.4348708139
 O       -13.7581894181       -8.2380831306       -4.5685865525
 C       -15.8249932996       -9.0282521080       -5.5374611799
 C       -13.0874314236       -5.9865939672       -6.1584811474
 C       -15.6248263143       -5.8752861520       -6.3336792272
 C       -10.5804896468      -11.3044966195      -10.8681924854
 C       -11.5209412426      -12.0379251521       -8.6230505416
 C        -4.8841282618       -9.6075436571       -4.9467980331
 C        -7.2803695311       -8.7621543473       -4.7625683792
 C        -3.0195512217       -7.2858864762      -11.9069252428
 C        -3.4253896218       -9.7298547597      -11.0619430840
 C         3.1043076698       -5.8523807700       -8.7837774689
 C         2.3965344770       -7.2968879564       -6.8208918677
 C        -1.3130328353       -2.6451728634       -4.8477805800
 C        -2.6387036942       -4.9542112698       -5.1760571266
 C        -6.3606685725       -0.3784330284       -9.8297809579
 C        -4.2675904297       -1.0001004017      -11.2000121698
 C        -1.8048086084        5.1625547872       -7.7533532132
 C        -3.1184596519        6.2101205285       -9.7888871474
 C         5.2210246007        7.1782392536       -9.4461326353
 C         3.8143870778        9.2804008354      -10.0639610496
 C         5.2669925675        2.4014768254      -15.2393111885
 C         5.0539494330        4.8821552251      -15.8795675317
 C        -2.8142597631        2.2386760834      -15.2803148935
 C        -1.8798700676        2.6639069554      -17.6097274129
 C        -1.1201061113        9.9491632195      -15.3730683620
 C         0.3170019525        8.7238701313      -13.6842972777
 H        -4.1149043219        9.3957693394      -14.1924161100
 H        -2.8934746477       10.3105430920      -13.3628172105
 H        -3.9102484086        9.2307787124      -12.4453104508
 H        -0.9764722569        7.7453504096      -17.3413507954
 H        -2.5337376727        7.6065360466      -16.5527427130
 H        -0.7379792974        5.3701263271      -17.3700255981
 H        -2.4354978539        5.4685767004      -17.7817322385
 H         1.0235660034        2.2508457231      -17.2371831997
 H         0.3000927061        1.0483168846      -16.1949148156
 H         2.7416258734        1.2366951153      -16.0225709918
 H         1.9898578944        1.7148037229      -14.4496070555
 H         3.4928087472        5.9782876216      -13.9032904221
 H         5.0163994597        5.8188535779      -13.0096639252
 H         3.5867270714        4.9097273240      -11.1573880473
 H         2.1589380720        5.3911517200      -12.3010416086
 H         1.3476814070        8.1293238185      -10.2836076854
 H         1.6350429466        8.7514552304       -8.6421965020
 H        -0.7031461964        7.9110514538       -8.4838909420
 H         0.3121463687        6.5894095173       -7.9851308209
 H        -2.9571175943        2.8068200615       -8.4655128504
 H        -1.3134075322        2.4596741764       -8.6137591497
 H        -2.1266649676        0.6139033976       -9.6631870545
 H        -2.1835629991        1.5674690167      -11.0423975028
 H        -5.6135138440       -1.4726548649       -7.1811058604
 H        -4.8780950310        0.2012076647       -7.1603843743
 H        -4.3435815594       -1.2443819903       -5.1221500591
 H        -2.8348111769       -0.7966086731       -6.0048098027
 H         0.2825226735       -2.6511102530       -6.9207145604
 H        -0.5682509634       -2.3306268150       -8.4451024661
 H         1.3995634590       -3.7855889430       -8.9082330172
 H        -0.0716275866       -4.6284158839       -9.1622462905
 H        -0.3773967165       -8.3627931909       -7.7603477322
 H         0.7088387126       -9.3868608093       -8.4723730093
 H        -0.9348682957       -9.8884792188       -9.8854221875
 H        -0.5662888325       -8.3352668549      -10.4906281105
 H        -5.3213213008       -9.5603450236       -8.8581058871
 H        -6.4112233146       -9.0182639506      -10.1685688305
 H        -7.6477122899       -8.2668729213       -8.3359940924
 H        -6.5994211776       -6.7885279489       -8.6551125313
 H        -8.8739237930       -9.8057005592       -6.3573296887
 H        -8.2771543658      -11.1729166419       -5.3405949472
 H        -9.5517773392      -12.2422971911       -6.9005920682
 H        -7.9843462572      -12.4911677821       -7.5009433948
 H       -13.2344179414      -10.0331911245       -8.5994983594
 H       -12.8056413201       -9.5290104304      -10.1004484017
 H       -12.6762165159       -7.2156559261       -9.5287908933
 H       -12.0457433824       -7.6355398713       -7.9671785755
 H       -16.3669961359       -8.8373845704       -4.5679124169
 H       -15.4421312498      -10.0273046847       -5.3947906932
 H       -16.4048174677       -8.9634065970       -6.4847610436
 H       -12.4680395281       -5.9540272994       -7.0100769485
 H       -12.5885342293       -6.4226066459       -5.2941058121
 H       -13.3266060876       -4.9625937481       -5.7861229376
 H       -15.4818758904       -5.2426790899       -5.5193371175
 H       -16.5873883905       -6.4490689399       -6.1160220289
 H       -15.7574208762       -5.3881578323       -7.3018079455
 H       -10.2726921048      -12.3180998862      -10.8563949131
 H        -9.7980879861      -10.6492393873      -11.4124931778
 H       -11.5890870340      -11.1356903547      -11.2564977089
 H       -11.5178219708      -11.8960490861       -7.5514079454
 H       -11.1266661311      -13.0261197868       -8.8949839546
 H       -12.6321019193      -11.9325750861       -8.9344808892
 H        -4.1752125410       -9.9891036279       -5.6180501549
 H        -5.1728781046      -10.2410494261       -4.1896609660
 H        -4.5321589735       -8.7160937183       -4.4496938200
 H        -6.8055362664       -8.1214378034       -4.0488457820
 H        -7.6493532999       -9.5785846642       -4.1799497261
 H        -8.1396157351       -8.2497554063       -5.1787406142
 H        -1.9574254908       -7.0754796734      -12.0305502243
 H        -3.4596982426       -6.3606004399      -11.6389893597
 H        -3.5374058058       -7.5012363771      -12.8545406361
 H        -2.5675493604       -9.7614323204      -11.8388385957
 H        -4.3366314093      -10.0528909254      -11.4479781582
 H        -3.0770492281      -10.3890962119      -10.2396969115
 H         3.3003032662       -4.7604897290       -8.6587946902
 H         3.0085195454       -5.9416130625       -9.8794092692
 H         4.0823867273       -6.4086663627       -8.6699052892
 H         1.5424716961       -7.6176166094       -6.2243067771
 H         2.9960257683       -6.6175073464       -6.2640493636
 H         2.9791007197       -8.1911297744       -7.0950931804
 H        -0.5974297978       -3.2546649100       -4.2756331164
 H        -1.9514069178       -2.0867953649       -4.2044574479
 H        -0.8135296907       -1.8702859132       -5.4573981025
 H        -2.1312120760       -5.7618205901       -5.7710023044
 H        -3.7464821633       -5.1544839377       -5.2326252127
 H        -2.2841497264       -5.0894407316       -4.1010442841
 H        -6.7815363668        0.1577551100      -10.6906536274
 H        -6.7370392728        0.1557614276       -8.9286755849
 H        -6.6259793378       -1.4089691952       -9.8249974569
 H        -3.2522535999       -1.3771185320      -11.1765499900
 H        -4.3342171168       -0.3504368935      -12.0298012087
 H        -4.9214872572       -1.8371173513      -11.3642443759
 H        -0.9581404808        4.5138070593       -7.6694840998
 H        -2.6113879378        4.5421477348       -7.3965150285
 H        -1.8986531567        6.0522903982       -7.1675377158
 H        -3.9752734576        5.8396857266       -9.2644639891
 H        -3.2676684378        6.1793132341      -10.8444759679
 H        -2.9915479683        7.2489351935       -9.5208691205
 H         5.1977765499        6.9101783750       -8.4072708435
 H         5.9000780651        7.9914813525       -9.7157179213
 H         5.6062510852        6.2720781650      -10.0568888414
 H         4.5796850850        9.6542617700      -10.7448589731
 H         3.9765186446        9.7447593362       -9.0865912698
 H         2.9601596057        9.8928450078      -10.4245320187
 H         6.3125974912        2.7030070698      -15.5021922777
 H         5.1348457922        1.7600649773      -16.0884852071
 H         5.2503317892        1.9233289995      -14.2538970556
 H         4.4804371455        5.8212644133      -15.8368318530
 H         4.9922525200        4.6006626974      -16.9814996451
 H         6.0852234056        5.0524946374      -15.6015683641
 H        -2.4962567073        2.2315459154      -14.2512642530
 H        -2.9249505500        1.2366049310      -15.5804247937
 H        -3.7579325852        2.7466491384      -15.3577923084
 H        -1.2890394001        1.7243696790      -17.5210543743
 H        -1.3599059593        3.2936394677      -18.2669938070
 H        -2.9005216445        2.5509269760      -17.8686166532
 H        -2.1327718675       10.0535345225      -15.7409308035
 H        -0.4434703772        9.9963089775      -16.2502487532
 H        -0.8855702705       10.7908638832      -14.7075338573
 H         0.4206969501        7.9127762565      -12.9362956582
 H         0.2937151232        9.5805605650      -12.9888741225
 H         1.1975923315        8.8000069203      -14.3410250051
 Na       -1.2205137359        5.1599313871      -12.8671507563
 Na       -4.0242374944       -5.7220556289       -7.9989324380
