232

 C        -3.2239922481        9.3777200355      -13.1695830284
 C        -2.0733771155        8.3292666520      -13.3447482654
 O        -2.0874017119        7.3366100377      -12.6282060195
 C        -0.9571311990        8.5501461116      -14.5170666267
 C        -0.8716389558        7.1638383928      -15.3223283768
 O        -0.2246404000        6.2042256376      -14.9460494255
 C        -1.5600174945        6.9799735844      -16.6562199979
 C        -1.6015484744        5.5301507465      -16.9926650799
 C        -2.1639856359        4.6689095427      -15.9742890457
 O        -2.7240921393        5.1354044249      -14.9562964787
 C        -1.8198970741        3.1691243978      -16.0259423137
 C        -0.2358975374        3.1123489846      -15.3705055952
 O        -0.0105160612        3.6325027469      -14.3088467023
 C         0.7117266524        2.1692525966      -15.9703726692
 C         2.0175615989        2.2406768072      -15.1492068307
 C         2.9280643846        3.2733790962      -15.7900792271
 O         2.5750527560        4.0503090581      -16.6762292085
 C         4.3293525710        3.4757038777      -15.1018934968
 C         3.9925272873        4.0133271757      -13.6600348892
 O         3.4333368947        3.2552403298      -12.9193921159
 C         4.3956801837        5.3932569171      -13.1628498294
 C         3.4135607448        5.7398776214      -11.9506614127
 C         3.4386129241        7.1907683247      -11.6185726176
 O         3.0155349216        8.0892371669      -12.3028753862
 C         3.8349662621        7.5791355844      -10.1506244312
 C         2.5871907799        6.9184535777       -9.3073749876
 O         2.7784531804        5.9195308441       -8.6986163073
 C         1.2682600823        7.8422845451       -9.1769409473
 C         0.0705268285        7.0498749963       -8.7544407270
 C        -0.6320278575        6.1734579891       -9.8553098337
 O        -0.2605615171        6.1988449285      -11.0042388351
 C        -1.8377603941        5.2844720494       -9.4126570397
 C        -1.9015294876        3.9004231650      -10.1576622216
 O        -1.7774338393        3.8512714501      -11.3802140637
 C        -2.1541039212        2.6220405791       -9.4534671563
 C        -2.7553201645        1.5176344936      -10.3611609655
 C        -4.1251130322        1.2143569600       -9.8097883166
 O        -4.8065132626        1.9891682687       -9.1478090689
 C        -4.7994466322       -0.3010761524       -9.9694870416
 C        -4.0619328149       -1.1015391341       -8.7641999231
 O        -2.9039460050       -1.3326154726       -8.8782367740
 C        -4.7249717536       -0.9714273468       -7.4173467548
 C        -3.8596701308       -1.3478163895       -6.3002238648
 C        -3.5728627910       -2.8615703993       -6.3049539605
 O        -4.5331054470       -3.5656476346       -6.6332809075
 C        -2.2138667384       -3.5243268018       -5.8993460589
 C        -1.6270853158       -3.8785452068       -7.4030519046
 O        -2.2309322176       -4.6475030991       -8.0876113606
 C        -0.2912478624       -3.2178822034       -7.9367780769
 C         0.5826744928       -4.2774838440       -8.5955259209
 C         0.8443563394       -5.4158283761       -7.6241052077
 O         0.2778113267       -5.3947863923       -6.5274389600
 C         1.9519718059       -6.5159100054       -8.0002534825
 C         1.0942867594       -7.4191946291       -9.0370733423
 O         1.1564198192       -7.1192791560      -10.2062710193
 C         0.0962820553       -8.3893167905       -8.3982379366
 C        -0.9519907321       -8.8924656287       -9.5056926912
 C        -2.3075006259       -8.0529112969       -9.3182073696
 O        -2.3595792404       -7.2724021123       -8.3955813341
 C        -3.4297825869       -8.0663953712      -10.4938423957
 C        -4.8221039906       -7.5709034969       -9.8767187210
 O        -5.1547745919       -6.4154960832       -9.9076901396
 C        -5.7334429408       -8.6805624172       -9.2960680278
 C        -6.5913807479       -8.0151474366       -8.2145750467
 C        -5.8247321353       -8.0806228025       -6.8712060127
 O        -5.0031739331       -7.2430568336       -6.3724743949
 C        -6.2951754834       -9.1503777140       -5.8970865382
 C        -6.9498086389      -10.3593235388       -6.7805846097
 O        -6.1417796530      -10.9139340404       -7.5254971665
 C        -8.2870970017      -10.8592111440       -6.4226704754
 C        -8.8745742263      -11.9811752722       -7.2533357227
 C        -9.1834249606      -11.3241735922       -8.6578423914
 O        -8.2935585625      -10.8645065098       -9.3254674224
 C       -10.6840398144      -11.0619480267       -9.1434048370
 C       -11.1581610271       -9.6108755098       -8.6945218176
 O       -10.2891088186       -8.7159646579       -8.5507644230
 C       -12.6543164205       -9.2841628332       -8.8078373623
 C       -12.9419281179       -7.8293954318       -8.6131551288
 C       -14.3150484747       -7.7259571650       -7.8780320555
 O       -15.3271754888       -8.2537701271       -8.3089325247
 C       -14.4247536633       -6.9421336192       -6.3842075892
 C       -14.3308894058       -8.0400677947       -5.3238926266
 O       -13.3654200685       -8.1543991646       -4.5939684617
 C       -15.5273237587       -9.0502064996       -5.3308130246
 C       -13.3834657905       -5.8840179140       -6.0756038164
 C       -15.8456067131       -6.2831260117       -6.4513168839
 C       -10.5816730353      -11.0849519148      -10.7125766367
 C       -11.5542231635      -12.1969986019       -8.5885968104
 C        -4.9445024091       -9.6842100288       -5.2491514167
 C        -7.1859375701       -8.2898765735       -4.9821447486
 C        -2.9861869792       -7.1029069560      -11.5960619240
 C        -3.4348838778       -9.6111569631      -11.1108847023
 C         3.1887005719       -5.8872526626       -8.6702106322
 C         2.3232340261       -7.3081263919       -6.7820395519
 C        -1.2906998998       -2.5989272630       -5.0079170283
 C        -2.3187377587       -4.8914562143       -5.1306157759
 C        -6.3349529319       -0.1783057118       -9.7938062235
 C        -4.4219724540       -1.0737639059      -11.2615415726
 C        -1.9631716389        5.2703941251       -7.8688267559
 C        -3.1518348282        5.9897787111       -9.7789221254
 C         5.2400443329        6.8460943917       -9.6847693783
 C         3.9483014435        9.1079654814      -10.0789814758
 C         5.1038112561        2.1406960712      -14.9346608922
 C         5.0723100593        4.5068843081      -16.0034224773
 C        -2.6859773688        2.3157159757      -15.1663125335
 C        -1.8696637832        2.6695242242      -17.4908257371
 C        -1.4001599279        9.7135619585      -15.4271599270
 C         0.2926105319        8.8284350079      -13.6805039222
 H        -3.9160548686        9.0311078598      -13.9009874816
 H        -3.0775257116       10.4222487248      -13.4676813456
 H        -3.8427886066        9.3409694784      -12.2766103908
 H        -0.8762997851        7.3461956863      -17.3736930594
 H        -2.5759972478        7.4205401105      -16.8579657752
 H        -0.6475603831        5.1751055795      -17.3513013265
 H        -2.3425649992        5.3022244151      -17.8202921783
 H         0.9895212738        2.5010022315      -16.9911518778
 H         0.3520881356        1.1166513428      -16.0892276293
 H         2.4293069410        1.2333370096      -15.0600389900
 H         1.8753501742        2.5239556063      -14.1288540334
 H         4.2816893243        6.0770323843      -13.9876680881
 H         5.4860335373        5.3623381139      -12.9048604643
 H         3.7950782634        5.0696308953      -11.1725787619
 H         2.4105238461        5.4764753313      -12.2619541647
 H         1.0343258325        8.4923224655      -10.0315540783
 H         1.6422467777        8.4426057072       -8.3458102090
 H        -0.6896709394        7.7386835304       -8.3521422256
 H         0.3109829341        6.2881296932       -7.8906000434
 H        -2.7979942141        2.7197796856       -8.5208814570
 H        -1.1826892719        2.2532377464       -9.0661124760
 H        -1.9994163963        0.6459203851      -10.4619515465
 H        -2.9370889688        1.8686036869      -11.3822786559
 H        -5.6485483096       -1.7173376453       -7.3814932310
 H        -5.0830635702        0.0171919059       -7.3357847011
 H        -4.3006781398       -0.9953126667       -5.3942368104
 H        -2.9043366021       -0.7990375883       -6.4892888048
 H         0.1895797451       -2.7621425631       -7.0143758671
 H        -0.5987626317       -2.4138300011       -8.5965343985
 H         1.5346595116       -3.8458468158       -8.9573390228
 H         0.1147687240       -4.5744614699       -9.6018520308
 H        -0.5052258726       -7.7835371312       -7.5325667183
 H         0.6535695869       -9.2339898895       -7.9377368575
 H        -1.0375576463       -9.9784795585       -9.5038638458
 H        -0.4351296073       -8.6618036756      -10.5221134979
 H        -5.1137792704       -9.5017991913       -8.8668841575
 H        -6.2415910484       -9.0857751023      -10.1735161019
 H        -7.5131725147       -8.5711158343       -8.0897270732
 H        -6.8431142355       -7.0212732374       -8.5736046907
 H        -8.9658449434       -9.9994824386       -6.3344627573
 H        -8.2462282163      -11.2044949940       -5.3898271642
 H        -9.6988626317      -12.4302460782       -6.6336287184
 H        -8.1408292675      -12.8337343787       -7.4946475960
 H       -13.1789403018       -9.9071211617       -8.1292778849
 H       -12.9677966473       -9.7505375491       -9.7409439618
 H       -12.9421143986       -7.2592433657       -9.6086669119
 H       -12.0306453887       -7.5558938582       -8.0133583609
 H       -16.2480630232       -8.7746737507       -4.5885400896
 H       -15.2291562754      -10.1075568996       -5.1333014146
 H       -15.9345990624       -8.9974585908       -6.3178209598
 H       -12.3908110933       -6.2281123123       -6.5108121321
 H       -13.2456191977       -5.6936681342       -5.0026528741
 H       -13.5732355528       -4.9487239809       -6.5893007970
 H       -16.3694821316       -6.1817438870       -5.4526548240
 H       -16.4677240437       -6.9542406171       -6.9780090602
 H       -15.8021932955       -5.4004597979       -7.1065567025
 H        -9.7718716205      -11.8023684207      -11.0320741469
 H       -10.3155884346      -10.1385039474      -11.0471290863
 H       -11.6365974745      -11.1901636916      -11.0137187848
 H       -12.1117027972      -11.8661065506       -7.6903271498
 H       -11.0018434149      -13.1265030669       -8.3553990932
 H       -12.2727048686      -12.3538131438       -9.3038406629
 H        -4.4524929837      -10.2876722745       -6.0639736905
 H        -5.1012393719      -10.2155407433       -4.2574119815
 H        -4.3804165964       -8.7884899486       -5.0024126788
 H        -6.7607940383       -7.3085954226       -4.7106800948
 H        -7.4901563202       -8.7240644237       -4.0124726412
 H        -8.1004206794       -8.1188029315       -5.5078854642
 H        -2.0876012169       -7.4740732716      -12.0204926068
 H        -2.7972789597       -6.0757795270      -11.2118509765
 H        -3.7951763554       -6.9651215730      -12.2758348580
 H        -2.6928524829       -9.9573436365      -11.7444329235
 H        -4.4833938098       -9.7782589282      -11.5133032323
 H        -3.3749034253      -10.1959711810      -10.2058069694
 H         3.7006030839       -5.3534476766       -7.9035101568
 H         3.0514973857       -5.1008918605       -9.4230169389
 H         3.8137894573       -6.5649750836       -9.2142100528
 H         1.4259588032       -7.8402238574       -6.3988401480
 H         2.7673128996       -6.6164338713       -5.9986142618
 H         3.0532631987       -8.0714368343       -7.0440924816
 H        -0.3848933818       -3.1718121135       -4.8677425377
 H        -1.8200105332       -2.5325771808       -4.0392562587
 H        -1.0648055006       -1.6216916728       -5.3988607983
 H        -2.3019443744       -5.7664146458       -5.7109802172
 H        -3.2138178530       -4.8210272185       -4.5895814984
 H        -1.5007161091       -5.0565854468       -4.4813058880
 H        -6.7977152469       -0.3198365644      -10.7606010893
 H        -6.5859976533        0.8117057545       -9.5961461352
 H        -6.6965243821       -0.8224191834       -8.9503709488
 H        -3.3453815838       -1.2227330939      -11.2117052073
 H        -4.6408449408       -0.5314242651      -12.2101408071
 H        -4.8139407541       -2.1026886208      -11.3117760004
 H        -1.1491353394        4.7331702417       -7.3356809107
 H        -2.9225149624        4.8625597140       -7.6352189337
 H        -2.1245476264        6.2843396645       -7.5257154094
 H        -3.9738902931        5.2630543446       -9.5806204164
 H        -3.0607760830        6.4136036509      -10.7861231263
 H        -3.4306826173        6.8213299603       -9.1704605541
 H         4.9667149658        6.0912950857       -8.9228054047
 H         5.7984075539        7.6762497479       -9.2758916156
 H         5.7795239247        6.3048467089      -10.3724204682
 H         4.7277486446        9.5396228857      -10.6767573209
 H         4.2607294315        9.5142133510       -9.0646861393
 H         3.1065744495        9.6677514891      -10.3801761080
 H         6.1284396901        2.2720072864      -14.7035529737
 H         5.0734258526        1.5561051510      -15.8799428060
 H         4.5939616426        1.6043842629      -14.1411477450
 H         4.6071516197        5.5315802383      -15.9248909117
 H         5.2103374096        4.3058788426      -17.0779136324
 H         6.0295936320        4.6350371860      -15.4236354236
 H        -2.3961607545        2.2983927325      -14.0760606998
 H        -2.4901042788        1.2625304940      -15.4704543267
 H        -3.7464454805        2.5533303579      -15.3376770797
 H        -1.6654592981        1.6223866209      -17.5425037490
 H        -1.1141366879        3.1946162457      -18.1253961411
 H        -2.8994528048        2.9743518810      -17.7459274973
 H        -2.3100846052        9.3510477540      -16.0130485946
 H        -0.6317229161        9.9762275074      -16.1786075081
 H        -1.5680447753       10.6428656918      -14.8393287198
 H         0.7375092531        7.9377672320      -13.2714339935
 H         0.0469913789        9.3507167330      -12.7654067516
 H         1.0233849355        9.4028009799      -14.1874171890
 Na       -1.1227905310        5.1751716503      -13.1007037063
 Na       -4.1129414360       -5.6575056177       -7.6051295170
