232

 C        -3.1174121940        9.3480501758      -13.1253984866
 C        -2.1412932815        8.2651047353      -13.4225538001
 O        -2.0084264653        7.3744468450      -12.5359840023
 C        -1.0810025733        8.4721315509      -14.4723891967
 C        -0.8214640187        7.1869182243      -15.3239923432
 O         0.0290560118        6.4043237289      -14.9534955912
 C        -1.5933209218        7.0431445293      -16.7239012555
 C        -1.6330425894        5.5357462603      -17.1687828091
 C        -2.1760163014        4.6931502420      -15.9266958409
 O        -2.8160505277        5.1892914017      -15.0086750825
 C        -1.7565207086        3.1621991245      -15.9041885337
 C        -0.2399293561        3.1135642738      -15.3475556393
 O        -0.0643616943        3.7237323024      -14.3220841951
 C         0.6712061728        2.1613534868      -15.9207664403
 C         2.0589412745        2.1997513734      -15.2005000439
 C         2.8805483596        3.3560349837      -15.6443131199
 O         2.4453845202        4.0458058175      -16.6002254978
 C         4.4212706077        3.4581630487      -15.0356663065
 C         4.0858500293        3.9366866297      -13.6313036939
 O         3.2744470111        3.2666620989      -12.9771074054
 C         4.4597559731        5.3814008724      -13.1874373784
 C         3.6135172343        5.7691705575      -11.9791749350
 C         3.3991458830        7.2527473876      -11.6527244748
 O         2.9948150869        8.1591966980      -12.3899171711
 C         3.7400180496        7.5806650767      -10.1028726529
 C         2.6456821475        7.0471394246       -9.2190994776
 O         2.5838348036        5.9121481987       -8.8029905636
 C         1.3220082887        7.8237247433       -9.2866414714
 C         0.1922184051        6.9164458667       -8.7254108208
 C        -0.6121192608        6.1722749410       -9.8017449588
 O        -0.1956302032        6.2137375261      -10.9598208860
 C        -1.8799731508        5.3199289177       -9.4667336404
 C        -1.7220117551        3.8484608637      -10.2823395032
 O        -1.6707593741        3.8580450999      -11.5042981193
 C        -2.0552496348        2.5665884670       -9.5335159323
 C        -2.7756883773        1.4473725421      -10.4577460046
 C        -4.2764320788        1.1543508414       -9.8939699298
 O        -4.7272960153        1.9688981474       -9.1283506877
 C        -4.8008202990       -0.2499826102      -10.0078677957
 C        -4.0126509752       -0.8630910538       -8.7326295482
 O        -2.8671945844       -1.2467900217       -8.8781366146
 C        -4.7505277481       -0.9576829548       -7.4155839987
 C        -3.7952008605       -1.4199768382       -6.3399374462
 C        -3.6342466139       -2.9255505663       -6.2937946734
 O        -4.6060848537       -3.6376733432       -6.5265036261
 C        -2.1743237641       -3.5312713079       -6.0095868822
 C        -1.5556713713       -3.9402508449       -7.3817791660
 O        -2.0506384564       -4.6502925281       -8.1572352166
 C        -0.2807474587       -3.2168377779       -7.9865654423
 C         0.6035075821       -4.2296544945       -8.6429885194
 C         0.9910470824       -5.2950734863       -7.6414356220
 O         0.4034243384       -5.3891440868       -6.5819879968
 C         1.9356165594       -6.5053655852       -7.9724518669
 C         1.0757644927       -7.3952584982       -9.0561872286
 O         1.1402754380       -7.1911456818      -10.2583761221
 C         0.0528978215       -8.4181939570       -8.4140957628
 C        -1.0824378316       -8.8324138449       -9.4193502538
 C        -2.3225570594       -8.0403091510       -9.2103020970
 O        -2.4976945806       -7.2055898007       -8.3494414155
 C        -3.4211258828       -8.0254622715      -10.4325458514
 C        -4.7504320727       -7.5731248910       -9.9258220754
 O        -5.0060396338       -6.3764717210       -9.8153973965
 C        -5.6752931159       -8.6151773239       -9.3380828760
 C        -6.5429569191       -7.9947888930       -8.2153308925
 C        -5.8594224920       -8.1027783941       -6.8828635054
 O        -5.0514302470       -7.2882564119       -6.5414217712
 C        -6.3116526013       -9.1754619902       -5.8700089861
 C        -6.9410433408      -10.3990587507       -6.5945076429
 O        -6.2613737384      -10.8640648186       -7.5108128426
 C        -8.3548602495      -10.9043564194       -6.1994877600
 C        -8.8338032151      -11.9441450165       -7.2804470194
 C        -9.2272181536      -11.3210915556       -8.5953220452
 O        -8.2661881337      -10.9561346120       -9.2964628691
 C       -10.7355798940      -11.0574318701       -9.1504758707
 C       -11.1175987139       -9.6128912352       -8.7582309916
 O       -10.3878252618       -8.6741839293       -8.5701773521
 C       -12.6340390946       -9.3944690560       -8.6588752442
 C       -12.9767009280       -7.8795206173       -8.4961227191
 C       -14.2921706051       -7.7334306433       -7.7888423936
 O       -15.2421538762       -8.2907809806       -8.2964462816
 C       -14.4370823348       -6.9309705789       -6.4855372712
 C       -14.2175068165       -8.0955798442       -5.3634366121
 O       -13.2289982308       -8.1566999841       -4.6310189735
 C       -15.3904400950       -9.0921762937       -5.1556256970
 C       -13.5316195344       -5.8043710964       -6.1215270271
 C       -15.9567404032       -6.4464733181       -6.4088566383
 C       -10.7734798211      -11.0478441450      -10.6948646269
 C       -11.6726797142      -12.2598799049       -8.7084052184
 C        -5.0181749298       -9.7990770384       -5.2028200910
 C        -7.2584544856       -8.4141208209       -4.9608723933
 C        -2.9259365132       -7.0146697255      -11.5221774154
 C        -3.5539038066       -9.3935277148      -11.0206678087
 C         3.2172367157       -5.9109173420       -8.5779483132
 C         2.2204177033       -7.2824971901       -6.7186236615
 C        -1.3102900889       -2.5070768577       -5.2230751882
 C        -2.3081789311       -4.8066512370       -5.1779162065
 C        -6.3729569550       -0.1730071846       -9.8342376227
 C        -4.3881631061       -0.9241691934      -11.3377086121
 C        -2.0087384000        5.1425035629       -7.8262929801
 C        -3.1656540115        5.9676408695       -9.9561496026
 C         5.0654111307        6.7441902872       -9.9114598401
 C         4.0212255311        9.0759350677       -9.9116041382
 C         5.0398006191        2.0315918011      -14.8883596328
 C         5.3119941306        4.3327028594      -15.9681649125
 C        -2.7128027647        2.3362658450      -15.0224817651
 C        -1.7354618631        2.6289751659      -17.3647417909
 C        -1.4259247131        9.6217736718      -15.4872870098
 C         0.2192845155        8.8555296817      -13.7561277470
 H        -3.9715944299        9.3927373181      -13.8188334340
 H        -2.6325091700       10.2861209078      -13.2309535554
 H        -3.6233650594        9.2459901414      -12.1789217472
 H        -1.2003018128        7.6703244088      -17.6464388036
 H        -2.6316925622        7.2667438290      -16.5409442887
 H        -0.6183976298        5.1724570334      -17.4243538965
 H        -2.2428647410        5.3055065488      -18.0870322670
 H         0.7377561146        2.3487359464      -16.9773494022
 H         0.3141957334        1.1166440136      -15.8279665068
 H         2.5415418981        1.2290167715      -15.2980859360
 H         1.9327460735        2.2643804368      -14.1105481921
 H         4.2285025328        6.0635954087      -14.0741592877
 H         5.5797644027        5.4535632446      -13.0038948732
 H         3.9632429183        5.1193545909      -11.2241778574
 H         2.6032311532        5.4929105716      -12.1810431219
 H         1.1198508994        8.0374942806      -10.3182697611
 H         1.4472652831        8.8015513613       -8.7296286461
 H        -0.5130932502        7.5496209398       -8.1986708286
 H         0.5137805226        6.1307088692       -7.9784149756
 H        -2.7146907157        2.7347054848       -8.5921958097
 H        -1.0726943853        2.1675863431       -9.1234671296
 H        -2.0893613814        0.5466898398      -10.4257094410
 H        -2.8168518886        1.7325962595      -11.5191523937
 H        -5.5025000054       -1.6047263386       -7.4578996300
 H        -5.1534276736        0.0637702590       -7.1783051805
 H        -4.1792679170       -0.9792186113       -5.3746015752
 H        -2.8629795526       -0.9589533028       -6.5836811676
 H         0.2946619178       -2.6573906376       -7.2734689211
 H        -0.7218676380       -2.5116765300       -8.6902742351
 H         1.4513580080       -3.7132737422       -9.1306504938
 H         0.1651062464       -4.7167465520       -9.5384153515
 H        -0.3751142386       -8.0995829475       -7.3893469530
 H         0.6783414393       -9.3767452269       -8.3106960833
 H        -1.3615513140       -9.9141717174       -9.1785466978
 H        -0.6731446250       -8.8514082100      -10.4685998350
 H        -5.1131209920       -9.4755659801       -8.9957953316
 H        -6.2748753177       -8.9240899765      -10.1363351065
 H        -7.4370276783       -8.4969768037       -8.2097388188
 H        -6.6955301792       -6.9787120199       -8.4721784938
 H        -9.0624547863      -10.0191485313       -6.0740519002
 H        -8.4549450536      -11.3905463839       -5.2069679545
 H        -9.7167536040      -12.4396499170       -6.8244129798
 H        -8.0919192242      -12.7179662631       -7.4996578787
 H       -13.0485842236      -10.0856462220       -7.8409225602
 H       -13.1226816264       -9.8432173705       -9.5168789283
 H       -13.2161070305       -7.4707067102       -9.5125781417
 H       -12.0851650893       -7.4248524031       -8.1265554140
 H       -16.2461248957       -8.7211283090       -4.5341308711
 H       -14.9694748890       -9.9617625304       -4.7166802483
 H       -15.6980833431       -9.3567262062       -6.1699117169
 H       -12.5592845534       -6.1833390941       -5.8682260276
 H       -13.9275716343       -5.3250815549       -5.1897792494
 H       -13.3412269174       -5.0608872441       -6.9245905339
 H       -16.4856483690       -6.6481631191       -5.5405989733
 H       -16.4371940174       -7.1050399300       -7.1618242360
 H       -16.0679364251       -5.4380771394       -6.8270293664
 H       -10.2239378842      -11.8226361543      -11.0713803242
 H       -10.4336511988      -10.1333781391      -11.2092492205
 H       -11.8516824677      -10.9988261982      -10.7767703392
 H       -12.0795545044      -12.1709237567       -7.7484219534
 H       -11.2209358335      -13.2494293251       -8.7829819746
 H       -12.4992371323      -12.1224499836       -9.4040713811
 H        -4.5158025373      -10.4233442316       -6.0020423960
 H        -5.3661668053      -10.3925037110       -4.3479111933
 H        -4.3796770298       -8.9830842504       -4.7845983917
 H        -6.7827216143       -7.4801593189       -4.5256815516
 H        -7.7215197141       -8.9473004726       -4.0772012026
 H        -8.1010105194       -8.0875806642       -5.5577431751
 H        -2.1236505540       -7.4186440053      -12.1133156905
 H        -2.5599679687       -6.0951111693      -11.0191339025
 H        -3.8100673883       -6.6423824594      -12.1121626845
 H        -2.6194425567       -9.8638464448      -11.4347882205
 H        -4.2847383365       -9.2681447704      -11.7628473835
 H        -3.8771191745      -10.1313585421      -10.2896564271
 H         3.8382873937       -5.6091259607       -7.8049893769
 H         3.1083209306       -4.9584533114       -9.1164461079
 H         3.6658033970       -6.5316665732       -9.3159353659
 H         1.3783281558       -7.7584688430       -6.2070859097
 H         2.7730891748       -6.5946259995       -6.0702407621
 H         2.9077066487       -8.0460678578       -7.0132628779
 H        -0.2617382313       -2.8209894085       -5.3786845366
 H        -1.5677327028       -2.7351770952       -4.2103998738
 H        -1.4146259167       -1.4537077508       -5.4385434694
 H        -2.6629170875       -5.6269402269       -5.7373301413
 H        -2.9516489989       -4.5917319399       -4.3380595280
 H        -1.3505677914       -5.2259536819       -4.9322764026
 H        -6.8887080941       -0.3252681058      -10.8076444957
 H        -6.6444790333        0.8244158172       -9.6000249496
 H        -6.6570321558       -0.8048848216       -8.9910673889
 H        -3.3291154166       -0.9487235836      -11.5854249018
 H        -4.9590894318       -0.4098775207      -12.1518469373
 H        -4.7154014409       -1.9955318331      -11.3410408612
 H        -1.2417277284        4.4586678896       -7.3333221628
 H        -3.0288079148        4.9108876761       -7.5737141093
 H        -1.8855528011        6.1726303755       -7.3966403152
 H        -4.0499666793        5.2851320714       -9.7314083794
 H        -2.9982007314        6.3426529586      -10.9859272120
 H        -3.4680466610        6.8687990384       -9.4088562421
 H         4.7760423611        5.8008212098       -9.5383418906
 H         5.6527339257        7.3419767127       -9.2209408156
 H         5.6408081079        6.4856246313      -10.8045078530
 H         4.9485956662        9.3859800139      -10.3731815238
 H         4.2984847974        9.4437426951       -8.8815525016
 H         3.3079632186        9.7432387264      -10.3271526156
 H         5.8850217953        2.1835047390      -14.2179040143
 H         5.4023516501        1.5390257703      -15.8146832223
 H         4.3290526178        1.3728353277      -14.3779539196
 H         4.6715410869        5.1171184085      -16.2960610665
 H         5.6558096674        3.8361881585      -16.8654067932
 H         6.0537555817        4.8152453834      -15.4421830255
 H        -2.7724986693        2.7071849347      -13.9322062083
 H        -2.3318269776        1.3407989513      -14.9090129677
 H        -3.6943971285        2.3387566260      -15.5341311466
 H        -1.8066903489        1.4926398661      -17.3136518669
 H        -0.8659444149        2.8801112471      -17.9082619439
 H        -2.6303552311        3.0818429421      -17.7568835334
 H        -2.3713005705        9.4402795263      -15.9823492642
 H        -0.6661614915        9.6970564978      -16.2601679452
 H        -1.3709797959       10.5611197765      -14.9625601672
 H         0.7454880763        7.9842860821      -13.3227429655
 H         0.1729307340        9.5568035631      -12.9049455903
 H         0.8317299960        9.2917660911      -14.4822047843
 Na       -1.1165025261        5.2775582881      -13.0694740586
 Na       -4.2233764815       -5.6636803344       -7.5768207888
