232

 C        -3.0854791927        9.7446346282      -13.0729415316
 C        -2.1719660132        8.5640754476      -13.5196961881
 O        -2.2362993643        7.4491042953      -12.9550479872
 C        -1.0198210775        8.7644631885      -14.6747132962
 C        -0.7729066905        7.5211642417      -15.5185837510
 O         0.1079262738        6.7229864750      -15.1458275199
 C        -1.6990310549        7.1179354801      -16.7353137004
 C        -1.4955416572        5.5513856456      -17.0130601495
 C        -2.0904448215        4.7389847654      -15.8973736317
 O        -2.7370733072        5.2515803380      -14.9660404973
 C        -1.7713987267        3.1730583665      -15.8143417949
 C        -0.2242157568        2.9929256068      -15.1760180557
 O         0.1137479875        3.7050580531      -14.2659878242
 C         0.6724110395        1.9522357825      -15.8228782621
 C         2.1735404659        1.8973767587      -15.4751126064
 C         3.0186074536        3.1695632439      -15.6140235477
 O         2.6068507785        4.1078730010      -16.3510210636
 C         4.4611356045        3.1869336370      -14.9395764295
 C         4.0211808500        3.8259874268      -13.5050260415
 O         3.4431562476        3.0421795114      -12.7799119147
 C         4.0761397935        5.3772515219      -13.4861749056
 C         3.1662290049        5.9681952624      -12.3524331911
 C         3.4294501161        7.3621705148      -11.7256260123
 O         3.2375325613        8.4005075134      -12.3552387976
 C         3.7495501977        7.4656139451      -10.1048179029
 C         2.6435737465        6.7943363147       -9.3441396651
 O         2.6828536380        5.6643645559       -8.9611854287
 C         1.3650869992        7.7796102126       -9.2193527412
 C         0.1028973546        6.9748680747       -8.8207793222
 C        -0.4847197216        5.9601167987       -9.9659560763
 O        -0.0138598072        5.8948643181      -11.1021442008
 C        -1.7426370227        5.0496902366       -9.5754539078
 C        -1.6849108395        3.7174718831      -10.4222606019
 O        -1.5063158804        3.7012214508      -11.6558142302
 C        -1.7692988927        2.3587718720       -9.7395942206
 C        -2.7274324590        1.4173468791      -10.4444057237
 C        -4.1616067998        1.3347278247       -9.8490311290
 O        -4.7691784104        2.2224982836       -9.2709398410
 C        -4.7897820978       -0.0733812379      -10.0310037412
 C        -4.0383603240       -0.7976945606       -8.7677102025
 O        -2.9258653577       -1.1879134163       -8.9768739153
 C        -4.7528185291       -0.9802664668       -7.5390167053
 C        -3.9196686502       -1.2923008056       -6.3587446921
 C        -3.5513175775       -2.7947889279       -6.3401629724
 O        -4.4625889006       -3.5502623207       -6.5807781999
 C        -2.0067370952       -3.4080835945       -6.1279592914
 C        -1.5341797375       -3.7255029940       -7.6665027405
 O        -2.1865290033       -4.5003435051       -8.2790648217
 C        -0.1737033296       -3.0909375670       -8.2608814843
 C         0.8383759593       -4.1883491629       -8.7195078753
 C         1.1274197617       -5.1989481710       -7.6547071853
 O         0.6627105680       -5.0874160550       -6.5291634384
 C         1.8980698735       -6.5591848620       -7.9462800466
 C         0.9455095227       -7.3844450721       -8.9308091198
 O         1.0347241580       -7.2039144784      -10.1378282543
 C        -0.0834727007       -8.3992697465       -8.3571105000
 C        -1.0263874582       -8.8363668681       -9.4221556484
 C        -2.3177892372       -8.0176126359       -9.1861147682
 O        -2.5246582008       -7.5783210830       -8.0634609140
 C        -3.2871139705       -7.9135117031      -10.3483916927
 C        -4.7798060507       -7.3052334655       -9.6853457566
 O        -4.9868566706       -6.1264516776       -9.7766530422
 C        -5.9043516528       -8.3208630646       -9.3687613079
 C        -6.7410250305       -8.0344049088       -8.1035516164
 C        -6.0440168276       -8.2390350352       -6.7415140256
 O        -5.0888009292       -7.5301269456       -6.3730029440
 C        -6.5488908014       -9.3551944112       -5.6807184696
 C        -7.1441003326      -10.5653521678       -6.5126599542
 O        -6.3572015916      -11.0691740418       -7.3063298676
 C        -8.6472566926      -11.0608130270       -6.3303377306
 C        -9.1340017962      -12.0833069682       -7.3064332796
 C        -9.3699446657      -11.4476292261       -8.6761410705
 O        -8.4218826665      -11.0002371611       -9.3253220650
 C       -10.8145118576      -11.1343923299       -9.2283980170
 C       -11.1104075619       -9.6456184845       -8.6454819653
 O       -10.1994512943       -8.8373149698       -8.4830367563
 C       -12.4710062391       -9.4822359382       -8.1253826930
 C       -12.9640387664       -8.0658561613       -7.9659168582
 C       -14.5191496721       -7.8591086753       -7.6794214793
 O       -15.3820580030       -8.4160238648       -8.3007475160
 C       -14.7535702678       -7.0254871083       -6.2592259342
 C       -14.0719907255       -8.0687472010       -5.3325468879
 O       -12.8375813084       -8.0237900645       -5.1501039977
 C       -14.9973850493       -9.1864395465       -4.7079437312
 C       -14.0163303565       -5.7172394312       -6.3397147460
 C       -16.2435707404       -6.7877580925       -6.0333410185
 C       -10.7901358060      -11.1010441579      -10.7994314185
 C       -11.8910860027      -12.2519329453       -8.8703851737
 C        -5.2585192364       -9.8135326866       -4.9782212722
 C        -7.6622670412       -8.7892406585       -4.6553336690
 C        -2.7594451726       -6.7214440088      -11.2015992976
 C        -3.3880223320       -9.1693332490      -11.2266522389
 C         3.1835341819       -6.2694570823       -8.7541657706
 C         2.1733758359       -7.3450508432       -6.6306066512
 C        -1.1309206364       -2.4207272805       -5.2696958115
 C        -2.1333150879       -4.7915077687       -5.3802525325
 C        -6.3063863180       -0.0358218423       -9.9493173221
 C        -4.3309118322       -0.7098526803      -11.3985098125
 C        -2.0641521913        5.0515164982       -8.0520260240
 C        -2.9764936021        5.9013125427      -10.0879232500
 C         5.0444121672        6.7476169649       -9.5897427838
 C         3.8759514115        9.0149254756       -9.9332920455
 C         5.0128567630        1.8406064299      -14.5813606871
 C         5.3966968337        4.0120754580      -15.8165053597
 C        -2.6986434973        2.4655750288      -14.7207670412
 C        -2.0149022564        2.4356507420      -17.1406135087
 C        -1.5315075597        9.9367826670      -15.5356809849
 C         0.2728513424        9.2512414337      -13.9528361594
 H        -3.6254411436       10.1102158512      -13.9354476066
 H        -2.6565260098       10.6183398149      -12.5574210678
 H        -3.9471219494        9.3107641422      -12.5518535246
 H        -1.4796647455        7.5791016136      -17.7132761746
 H        -2.7577310407        7.2212980959      -16.6227502708
 H        -0.5419318729        5.1924846462      -17.3024750459
 H        -2.1222111394        5.2997172758      -17.8957429840
 H         0.6431149324        2.2759791643      -16.8789354238
 H         0.3140748436        0.8762713391      -15.7219787074
 H         2.7429039998        1.0997511073      -15.9723867956
 H         2.2790296860        1.5941956075      -14.4439883429
 H         3.7373176253        5.8684593272      -14.3455170664
 H         5.1251143595        5.6227118680      -13.4305381960
 H         3.1572709887        5.2708866327      -11.4770573610
 H         2.0898881225        5.9092858768      -12.6613491457
 H         1.2625926890        8.2667182905      -10.1792112500
 H         1.4939847668        8.5446903302       -8.4538627957
 H        -0.6319095701        7.7323017231       -8.6363725322
 H         0.2168646370        6.5239835601       -7.7462100992
 H        -2.0225296760        2.3787927874       -8.6680700271
 H        -0.7643216750        2.0865740571       -9.7816661520
 H        -2.2951199626        0.3581397268      -10.5914627485
 H        -2.8330114541        1.8424119744      -11.4078305049
 H        -5.3147732161       -1.8938013738       -7.7686177764
 H        -5.5253840475       -0.1833618156       -7.3767233373
 H        -4.6076842696       -1.1466721027       -5.5447727866
 H        -3.1339479180       -0.5198667066       -6.2807938864
 H         0.3219263336       -2.3782853026       -7.5321040014
 H        -0.5346811921       -2.5116395256       -9.1218366308
 H         1.7226452433       -3.7512747669       -9.1607366884
 H         0.5998365283       -4.7519859390       -9.6691228539
 H        -0.6918911018       -8.0816636381       -7.4139336693
 H         0.5458249533       -9.2605210822       -8.2312400575
 H        -1.2847983544       -9.8091220541       -9.1328086432
 H        -0.5349129054       -8.9144698604      -10.4169342372
 H        -5.5033392618       -9.4075416763       -9.4093067645
 H        -6.6515961918       -8.1976547108      -10.1867558005
 H        -7.6683730689       -8.6421186491       -8.2324473253
 H        -6.9946988975       -6.8959285284       -8.1186164771
 H        -9.2102460121      -10.1587923395       -6.4737708998
 H        -8.8533189196      -11.2623359292       -5.3151071580
 H       -10.0974912113      -12.5268525482       -6.9673003718
 H        -8.3382236605      -12.8571360892       -7.4614503228
 H       -12.4531043548      -10.0441582643       -7.2338737228
 H       -13.2093329958       -9.9420322251       -8.7761300432
 H       -12.6866477333       -7.4433381994       -8.8986846188
 H       -12.4049293627       -7.5522860220       -7.1446765563
 H       -16.0084815579       -8.8302403149       -4.4610519273
 H       -14.4938123690       -9.6843545520       -3.8692670595
 H       -15.1211230099      -10.0064675803       -5.4381783280
 H       -13.3275055118       -5.4719163668       -5.5309545857
 H       -14.7618986608       -4.9553190792       -6.1324336320
 H       -13.5046667723       -5.5601381855       -7.2548882258
 H       -16.4105409960       -6.1162018201       -5.1632909477
 H       -16.8265190175       -7.6752968280       -5.8410407525
 H       -16.6664369167       -6.2433854375       -6.9251417173
 H       -11.0869605293      -12.1105534417      -11.0680744461
 H        -9.8159534331      -11.1191696856      -11.2418412732
 H       -11.3583744754      -10.2166847263      -11.2305664155
 H       -11.8046449674      -12.5458784657       -7.8120603033
 H       -11.4584938405      -13.1740473008       -9.3707767149
 H       -12.9072975047      -12.1211661342       -9.1833654460
 H        -4.5678662813      -10.2483963674       -5.6958508818
 H        -5.5068877276      -10.6113752307       -4.3040653114
 H        -4.8510255336       -8.9655098727       -4.5261938800
 H        -7.3958710130       -7.9287258902       -4.0410571839
 H        -7.9347127467       -9.6039650210       -3.9895638304
 H        -8.5596934571       -8.5333205659       -5.0549291155
 H        -1.7367581101       -6.8944843395      -11.2981765371
 H        -2.8855009913       -5.7074566959      -10.7837050820
 H        -3.1712760781       -6.8002845747      -12.2021105097
 H        -2.4155355152       -9.3778756522      -11.6421944994
 H        -4.1058264305       -8.9886052844      -12.0613672321
 H        -3.6797248505      -10.0552330671      -10.6452448218
 H         3.7588804447       -5.4209091086       -8.4071238200
 H         2.8488431054       -5.8653680220       -9.7780595558
 H         3.7516909171       -7.2136338145       -8.9522734518
 H         1.3031794426       -7.4170167704       -5.9433963117
 H         3.0544966370       -6.9364160385       -6.0654841015
 H         2.4539188938       -8.3262080932       -6.9295474959
 H        -0.6027736533       -2.9502325842       -4.4717435793
 H        -1.7513677047       -1.6282637385       -4.8419361876
 H        -0.4220384974       -2.0270567132       -5.9495028246
 H        -3.1286327598       -5.2275336048       -5.3452125754
 H        -1.8504918894       -4.6077698886       -4.3347984861
 H        -1.6503143134       -5.6112182092       -5.9116122738
 H        -6.6495988472        0.9010313349      -10.4262698571
 H        -6.6748328511       -0.0613375532       -8.9934607946
 H        -6.7021829874       -0.9676844491      -10.4572646506
 H        -3.3858180105       -1.1507355617      -11.4101875915
 H        -4.4531825497       -0.0625643998      -12.2648599481
 H        -4.9904726593       -1.5320098156      -11.5889826672
 H        -1.1834155523        4.6858515728       -7.4775347818
 H        -2.9055342351        4.4824188979       -7.8849455714
 H        -2.0710131785        6.0466741558       -7.7084904673
 H        -3.8509573770        5.7112737449       -9.4669649128
 H        -3.1358255494        5.8296701044      -11.1343415796
 H        -2.7890994098        6.8930260925       -9.8992501441
 H         5.2168964634        5.8486375421      -10.2093820353
 H         4.8789882613        6.4535751083       -8.5085560795
 H         5.9249018794        7.3286424792       -9.7678201312
 H         4.8349503307        9.2469027654      -10.3502130648
 H         4.1721981003        9.4483811612       -8.9172374695
 H         3.1812395652        9.5831515770      -10.4271237554
 H         6.0735537576        1.8472871650      -14.4948745093
 H         4.5601896550        1.1493443961      -15.3270593712
 H         4.5961084822        1.3896611601      -13.6934828025
 H         4.8283690366        4.9292454368      -16.2135776376
 H         5.8172947953        3.4045108588      -16.6993171704
 H         6.2236074498        4.4574082420      -15.2011386561
 H        -3.2187065500        3.1915464655      -14.0204960208
 H        -2.0777812891        1.8958092382      -14.1002835092
 H        -3.4481349143        1.8947859457      -15.1867575195
 H        -1.6245639800        1.3989729693      -17.0883481677
 H        -1.5082126680        3.0507985690      -17.8578236453
 H        -3.0896286691        2.3021168742      -17.3372219579
 H        -2.4779701135        9.5396077938      -15.9907930043
 H        -0.7615412863       10.1416908425      -16.2925420656
 H        -1.7321195434       10.8315208737      -14.9240883299
 H         0.4703792371        8.8232811893      -12.9349504399
 H         0.2455076262       10.3519421534      -13.8419838319
 H         1.1510248485        9.0808678006      -14.4794224835
 Na       -0.8135462049        5.5502336678      -13.1840708816
 Na       -4.1193187992       -5.5003261261       -7.7494776077
