232

 C       -20.9422867924       -7.4122432007       -1.9483719503
 C       -20.8187558366       -6.0378024986       -2.6771081525
 O       -20.4001241145       -5.1191849714       -2.0345149308
 C       -21.1447584675       -5.9247050167       -4.2522450626
 C       -19.8708469664       -5.2234154726       -4.7924785720
 O       -19.5839387923       -4.1591580811       -4.2522997686
 C       -19.0160263299       -5.9635305347       -5.7592307556
 C       -17.8323258902       -5.0429276635       -6.1945770701
 C       -17.1987174652       -4.2752402579       -5.0491689130
 O       -17.0338022441       -4.7323381977       -3.9428797066
 C       -16.8016664701       -2.8474724437       -5.3540335826
 C       -16.6441419917       -2.0335492458       -4.0457687861
 O       -17.4974949230       -1.2527298321       -3.6217405044
 C       -15.2819496956       -2.0697616756       -3.2895238331
 C       -15.3928509541       -1.7338614592       -1.7724358890
 C       -15.8364708200       -2.9063850224       -0.8657910982
 O       -16.8688720498       -3.5789391162       -1.0984752040
 C       -15.1441562001       -3.3820320320        0.3998472122
 C       -14.1351609976       -4.4610507597       -0.0998101611
 O       -13.0268993556       -4.5334395819        0.4709690912
 C       -14.5446717987       -5.5061646441       -1.1301466130
 C       -13.4832428464       -6.6074121923       -1.4780159671
 C       -13.2304839697       -6.5550359888       -2.9569997669
 O       -13.9765721341       -5.9019354013       -3.6781008019
 C       -12.0972719941       -7.4686891536       -3.5871061128
 C       -10.6690849722       -6.8278453857       -3.2977526188
 O       -10.4291904811       -5.9831514355       -2.4817693772
 C        -9.4836659294       -7.1733697058       -4.3199481142
 C        -8.1624494119       -6.6050701131       -3.8350022675
 C        -7.5783210878       -5.2135182735       -4.2891652959
 O        -7.8432053820       -4.8186403692       -5.3867301996
 C        -6.5320319058       -4.3449927563       -3.4290993301
 C        -5.0536974049       -5.0367605758       -3.2803633103
 O        -4.5118106429       -5.0083013887       -2.2116732620
 C        -4.4693159684       -5.8349990670       -4.3799520851
 C        -2.9761291993       -6.1275950042       -4.2146331931
 C        -2.1606129404       -4.9112206066       -4.4335076981
 O        -2.6971349803       -3.8464230100       -4.6350120678
 C        -0.5948326530       -5.0093578552       -4.6394684675
 C        -0.1799595749       -5.3663964335       -6.0792446425
 O        -0.0361391338       -6.4925763752       -6.5564357043
 C        -0.0541327242       -4.2046096293       -7.1092375315
 C         0.1194854867       -4.6161600752       -8.5460584854
 C         1.0739107642       -3.8658773098       -9.3151559786
 O         1.8428181198       -3.0339778524       -8.8426024919
 C         0.9823802852       -4.0634461549      -10.8485498612
 C         1.5680564633       -2.7983599171      -11.6484671662
 O         0.8856375680       -2.2376499454      -12.4468732373
 C         3.1065548950       -2.4131369023      -11.5559020101
 C         3.6468972412       -2.5131966131      -13.0195706522
 C         4.8740853933       -1.5120455882      -13.2935836001
 O         5.2749218578       -0.9116528044      -12.3059714654
 C         5.4047502587       -1.0992271447      -14.6323876429
 C         5.1676821385        0.3652310283      -15.0138468032
 O         4.9842721863        0.6990562852      -16.1892888791
 C         5.2236559689        1.4588121711      -14.0057229353
 C         6.6929113281        1.8494764347      -13.7012194294
 C         7.5865953504        2.5370911973      -14.9192220705
 O         7.7070691957        1.9945555100      -15.9659681889
 C         8.2437228182        3.9633413483      -14.5992364893
 C         6.8966664575        4.8526865581      -14.3968975595
 O         6.1116522449        4.4914636173      -13.6130385571
 C         6.5572183419        6.1765174563      -15.1580109333
 C         5.2887859139        6.2512506167      -16.1085695026
 C         5.4049003012        5.0615449976      -17.1866310545
 O         6.2103279427        4.1734682836      -17.1458910378
 C         4.4754444692        5.2948197744      -18.4563079149
 C         5.3848540623        6.0506682429      -19.5451279321
 O         5.3386746194        7.2651106763      -19.7104535565
 C         6.2440758377        5.2582091358      -20.5014771009
 C         7.6869059740        5.7856906313      -20.7296310052
 C         8.0909397111        5.4324413742      -22.1366924597
 O         7.2316077076        5.4422049774      -23.0450191457
 C         9.6832028383        4.9294631195      -22.4645297081
 C         9.6366325083        3.4069472119      -22.0863822938
 O         9.0724226531        2.6354239994      -22.7726037292
 C        10.1979149523        2.9908837508      -20.6996121890
 C         9.8212064491        1.6313629711      -20.1237556281
 C         8.2530892086        1.4160551434      -19.9715434071
 O         7.6694039781        2.4174261740      -19.5340272069
 C         7.5452404473       -0.0233855613      -20.3837792666
 C         6.0122173360        0.1975027698      -20.3691920015
 O         5.4693763031        0.4568176492      -19.3099451745
 C         5.1734217966       -0.0425584210      -21.7025645208
 C         8.0035423928       -0.3749806581      -21.7596000716
 C         7.9669547758       -0.9623275157      -19.2287758576
 C         9.9240138361        5.1852122680      -24.0695644685
 C        10.7172599851        5.7471096184      -21.6880366473
 C         3.9770544973        3.9213493128      -18.8964143064
 C         3.3042523588        6.2204550504      -18.1622547673
 C         8.9755790255        4.0473143001      -13.1558728618
 C         9.1800023108        4.3972965978      -15.6420786451
 C         6.9832808080       -1.2660334107      -14.6782777580
 C         4.7842952681       -1.8816649471      -15.8122092225
 C         2.0424927374       -5.3116135309      -10.9516983865
 C        -0.3706060161       -4.4002049988      -11.5116782907
 C        -0.0038624051       -3.5778353996       -4.2510635399
 C         0.1301911108       -6.0317494485       -3.6501929192
 C        -6.2953914515       -2.9506949700       -4.1899648210
 C        -7.0266482724       -4.1544092840       -2.0018762921
 C       -12.0570350120       -8.8366110540       -2.8729183152
 C       -12.4219744310       -7.6151306176       -5.1134798659
 C       -14.3880354873       -2.3692930968        1.3599375762
 C       -16.1807280358       -4.0985494929        1.2541597738
 C       -15.4499345156       -2.7949010361       -6.2232548603
 C       -17.8770313726       -2.0450830873       -6.1637528681
 C       -21.4412274080       -7.3357578020       -4.9169562780
 C       -22.5160208306       -5.1069903605       -4.4239361838
 H       -21.9650776563       -7.5224591184       -1.5726425865
 H       -20.2460401204       -7.4044388514       -1.1580587239
 H       -20.7062045636       -8.1211884687       -2.6626996705
 H       -19.6285719387       -6.3178473696       -6.6219620371
 H       -18.6965317350       -6.8724829493       -5.2147437434
 H       -18.1174947768       -4.4144625423       -7.0914374645
 H       -17.1209026692       -5.7475432102       -6.6837811644
 H       -14.7474253241       -1.2134043626       -3.7111278491
 H       -14.7609850391       -3.0608434888       -3.5479623232
 H       -16.0867610031       -0.9116835258       -1.5836877401
 H       -14.4345187143       -1.3384368619       -1.3363933124
 H       -14.9646723369       -5.0303326695       -2.0428636240
 H       -15.4365292961       -6.0423949793       -0.7663277187
 H       -13.8676225515       -7.5959491783       -1.2977463830
 H       -12.5241412918       -6.5299782666       -0.9439608855
 H        -9.5935349436       -6.7328871078       -5.3956917495
 H        -9.3392754171       -8.2575464900       -4.5250783883
 H        -7.4504090833       -7.3453449767       -4.1840448398
 H        -8.1022880281       -6.5712024051       -2.7719854980
 H        -4.5934158811       -5.3294746588       -5.3564422988
 H        -4.9460211741       -6.8506418497       -4.4405924931
 H        -2.6310166890       -6.8824254132       -4.9144227984
 H        -2.7998583201       -6.4648332244       -3.1354181813
 H         0.7648293361       -3.4861876722       -6.7341399047
 H        -0.9650538462       -3.6546234423       -7.1071755295
 H        -0.8686272542       -4.6578718402       -9.0830653771
 H         0.3958338485       -5.7123345684       -8.5097511424
 H         3.6592684468       -3.0029716807      -10.8149909523
 H         3.0803344355       -1.3814847515      -11.1547289042
 H         2.8910601462       -2.2664898847      -13.8673570558
 H         4.0345231298       -3.5129890644      -13.1802522923
 H         4.7168335062        1.1971446131      -13.1176504392
 H         4.7623549303        2.3391412979      -14.2689806080
 H         7.2035657561        0.9553621715      -13.2990152297
 H         6.7539830468        2.6301062055      -12.9245712380
 H         7.3688429226        6.4783491141      -15.8843030552
 H         6.4338892423        6.9656274800      -14.4019360032
 H         5.3345757975        7.2482373119      -16.6573049563
 H         4.3662183925        6.2886905802      -15.4294989133
 H         5.5607886816        5.2679130207      -21.3906523185
 H         6.3887606697        4.2192847590      -20.2156371575
 H         8.4714772644        5.4432857126      -20.0290667460
 H         7.7709822966        6.8918214427      -20.5862061172
 H         9.9000659700        3.8783640485      -20.1033445113
 H        11.2759879060        3.1778266327      -20.6496895304
 H        10.3143648938        1.5856801755      -19.1465270157
 H        10.2516311874        0.9418911848      -20.8818344144
 H         5.1782734642       -1.0011885054      -22.1183120900
 H         5.5888111802        0.6107848988      -22.5004778471
 H         4.1354077386        0.2180977559      -21.4853386614
 H         7.4893101199       -1.1984870044      -22.3019235489
 H         9.1380983820       -0.5346519484      -21.8885269219
 H         7.8768574595        0.4320048009      -22.4336862748
 H         7.2912962491       -1.7808638496      -19.2141791600
 H         7.9010348020       -0.3982923180      -18.3525536391
 H         8.9467311603       -1.3701058528      -19.2587405807
 H        10.7852036809        5.8507025449      -24.3175211888
 H         8.9530681681        5.5548340905      -24.5488485345
 H        10.0138611250        4.2010663015      -24.5376795951
 H        11.6224152288        5.2178719512      -21.8305591890
 H        10.6063141835        6.0208721894      -20.6223174134
 H        10.8469247547        6.6487807914      -22.2371018605
 H         3.6243235260        3.3820693986      -18.0084897819
 H         4.7088806841        3.1647121778      -19.3557456751
 H         3.1001380258        3.9541577030      -19.5342884358
 H         3.5081805599        7.2688464141      -18.1779373516
 H         2.8359916724        5.9595276756      -17.1774222463
 H         2.4856825896        5.9170880401      -18.8671290360
 H         9.7903632515        4.8056319119      -13.2144945398
 H         9.4259172791        3.0671371881      -13.0476366884
 H         8.2650290630        4.3013804925      -12.3882711292
 H        10.1711827180        3.9715337114      -15.4099082895
 H         9.2542540733        5.4245024725      -15.7761642010
 H         8.8029764616        4.0209369307      -16.5807865122
 H         7.2759584212       -2.2115290444      -15.0467283792
 H         7.2449747119       -1.1721356348      -13.7081784069
 H         7.3698775624       -0.4385722337      -15.3023198628
 H         4.6018951152       -2.8914256070      -15.5764347740
 H         5.4337833215       -1.7262531681      -16.7049712748
 H         3.8432898317       -1.4975739306      -16.0837189778
 H         1.6293573935       -6.1858587019      -10.5235306391
 H         3.0456696938       -5.0698621341      -10.4844880994
 H         2.2686711053       -5.5364750049      -11.9930005835
 H        -1.1822571714       -3.7886958106      -11.1452548312
 H        -0.7166569376       -5.4209757562      -11.2164692083
 H        -0.3516356334       -4.2551003750      -12.5949628843
 H        -0.1156854721       -3.4737176012       -3.2399281806
 H        -0.5119258888       -2.8814434423       -4.8676411437
 H         1.0539960817       -3.5862180022       -4.4825481449
 H        -0.5607427878       -6.8444060536       -3.3673205317
 H         0.3762015998       -5.5282684524       -2.7653386857
 H         0.9009886849       -6.4176333055       -4.2643840337
 H        -5.8025250605       -3.1741136278       -5.1314988059
 H        -5.6620976254       -2.3313621595       -3.5969794558
 H        -7.1847012879       -2.5140299595       -4.4416061151
 H        -8.0875360537       -4.2499795586       -1.9249455323
 H        -6.6657915191       -3.2399880239       -1.6237654593
 H        -6.5574272480       -4.9563152077       -1.3845413902
 H       -12.9507373986       -9.4660609139       -2.9126823008
 H       -11.8278596799       -8.7034420420       -1.7845043599
 H       -11.3769292521       -9.4468095992       -3.3312400976
 H       -13.2040167270       -8.3116075020       -5.2471190269
 H       -11.5676935240       -8.1593334663       -5.5575845424
 H       -12.5872833559       -6.5894648638       -5.5963874945
 H       -13.5476446800       -2.9159055826        1.9188511706
 H       -15.0644695852       -1.9505289748        2.0969346568
 H       -13.9155792979       -1.5948408853        0.7826395555
 H       -15.7542809874       -4.3091650435        2.2009623216
 H       -16.5902980716       -5.0112168701        0.9248372893
 H       -16.9375764455       -3.3841122025        1.4596305740
 H       -15.6750487723       -2.6336839859       -7.3005769439
 H       -14.9535955775       -3.6978086004       -6.2132822068
 H       -14.6678088437       -2.1456310245       -5.8120739406
 H       -18.8337898739       -2.3875032158       -5.6241322885
 H       -17.9483331114       -2.2428268943       -7.1901941475
 H       -17.6481414153       -1.0251465920       -5.9005521425
 H       -20.5606889382       -7.9505733496       -4.7824802485
 H       -21.6165150775       -7.1486859240       -5.8950851239
 H       -22.3238922960       -7.8548880996       -4.5046093519
 H       -22.8201333433       -4.8013082403       -3.3942624252
 H       -23.2986748856       -5.7918784836       -4.6983145533
 H       -22.4107949588       -4.3626909960       -5.2339844198
 Na      -18.5835556619       -3.2273613562       -2.4163188483
 Na        6.1749423407        1.8429639308      -17.7332774653
