232

 C        -2.9669237748       10.2085086292      -13.6128648583
 C        -2.1409693580        8.9980164438      -13.7416246080
 O        -2.3477929178        7.9580089875      -13.1850208995
 C        -1.0133826328        9.1998093213      -14.9240590533
 C        -0.6380635467        7.7224583123      -15.4246012102
 O         0.1985991549        7.1220394438      -14.8088692935
 C        -1.5489067936        7.1600612507      -16.4876364890
 C        -1.4979067174        5.6451934359      -16.7879765066
 C        -1.9273917051        4.7868870506      -15.5887963983
 O        -2.4997207612        5.3059109659      -14.6546743218
 C        -1.6118128284        3.2479610959      -15.6702318841
 C        -0.0761705358        3.0581207871      -15.3414531752
 O         0.4639724700        3.7710438386      -14.5115752365
 C         0.5609923082        1.8190444573      -15.9877763507
 C         2.0450051371        1.6681837382      -15.5662021239
 C         3.0092296215        2.9317440085      -15.7935464112
 O         2.7381572968        3.8641135242      -16.4628139788
 C         4.2646289250        2.9542590340      -14.7395001652
 C         3.8711864425        3.7514115774      -13.3161126704
 O         3.9477419502        3.2336444559      -12.2352071107
 C         3.5245822502        5.2923651719      -13.4969543782
 C         2.8766292439        5.9212764670      -12.2484037196
 C         3.5668988279        7.2251681778      -11.8524490163
 O         3.8357385463        8.1631360316      -12.5154717135
 C         3.8782672482        7.3068188175      -10.3677744537
 C         2.5795281757        6.8426591701       -9.5046037921
 O         2.5902650264        5.6261732483       -9.2453534971
 C         1.3016280256        7.5851370908       -9.1185451049
 C         0.0357817271        6.8227439385       -8.7323927016
 C        -0.5789052791        6.0509322689       -9.9431346406
 O        -0.0729504237        6.2170891677      -11.0436735915
 C        -1.8343673279        5.1414068758       -9.7705375694
 C        -1.6572054462        3.7268935399      -10.4863940658
 O        -1.5631027078        3.7595643181      -11.6963980188
 C        -1.3280342130        2.3806961633       -9.8959900644
 C        -2.2019990458        1.2051459938      -10.5092972925
 C        -3.6915536747        1.3101080349      -10.0574963022
 O        -4.1443589746        2.4318869938       -9.9551147589
 C        -4.6090196054        0.0275110776      -10.0411542776
 C        -4.0903379373       -0.8541088554       -8.8938042608
 O        -3.1903573216       -1.6854323531       -9.1647240474
 C        -4.6890034451       -0.6973991348       -7.5068735250
 C        -3.8648546100       -1.2491455850       -6.2408808749
 C        -3.3828940885       -2.6560868272       -6.5912560205
 O        -4.3138239532       -3.4507315094       -6.9363632235
 C        -1.9463466529       -3.2484314008       -6.3851148373
 C        -1.4702425996       -3.7506294121       -7.7944321378
 O        -2.0714148037       -4.7145004501       -8.2107696815
 C        -0.1900050532       -3.0859875627       -8.4448751508
 C         0.8551217344       -4.2170371278       -8.8185081662
 C         1.2306823186       -5.2035563519       -7.6372934782
 O         1.1819384335       -4.8483732850       -6.4755130490
 C         1.7487434150       -6.6281804660       -8.0189413340
 C         0.6226334873       -7.3348283014       -8.8395692110
 O         0.2753819194       -7.0166680776       -9.9530126929
 C        -0.0077358027       -8.5649636533       -8.2758999471
 C        -1.2358918516       -8.9492895059       -9.2244066697
 C        -2.3517875139       -8.0818612651       -9.0104361928
 O        -2.5907174099       -7.7073238586       -7.8349338059
 C        -3.4266932610       -7.7683705095      -10.0947816982
 C        -4.7330728974       -7.5088847140       -9.4084044838
 O        -5.1270584377       -6.3541351939       -9.1622043900
 C        -5.7291069287       -8.6340503213       -9.2074530234
 C        -6.7951533707       -8.3459612218       -8.1362622931
 C        -6.2352616604       -8.2489476545       -6.6757527962
 O        -5.4355383477       -7.4575159650       -6.3554566832
 C        -6.8959579581       -9.3136908537       -5.6358101683
 C        -7.2595665863      -10.6262825494       -6.4459852769
 O        -6.4398333779      -11.1519889682       -7.1210736394
 C        -8.7329617403      -11.0760399057       -6.4211336168
 C        -9.0764661145      -12.0452420671       -7.5284485226
 C        -9.2594716048      -11.5501459725       -8.9513097812
 O        -8.3184561220      -11.4595209640       -9.7067858430
 C       -10.7942953128      -11.1804790182       -9.3655565097
 C       -11.2135750359       -9.8726680128       -8.5813312300
 O       -10.4617893398       -9.0379448648       -8.2193473920
 C       -12.7081340485       -9.7100835297       -8.1617407548
 C       -13.0653791766       -8.1930445439       -7.9475012894
 C       -14.5773428614       -8.0905301402       -7.4967987511
 O       -15.4220528932       -8.3306822091       -8.3392626440
 C       -14.8967468755       -7.4511818660       -6.0509529874
 C       -13.8850280371       -7.8809523264       -4.8980201328
 O       -12.7651139252       -7.4462413250       -4.9403290866
 C       -14.3044628943       -8.8029944346       -3.7643160831
 C       -14.7323706357       -5.9464656069       -6.2356622637
 C       -16.2785054037       -7.8501110185       -5.6723258410
 C       -11.1015006728      -10.7693756628      -10.8517236615
 C       -11.6719169876      -12.3470607506       -9.1252142405
 C        -5.7009680972       -9.7155352526       -4.6578180761
 C        -8.1023096410       -8.7459332248       -4.8729765515
 C        -2.9371601949       -6.4351561721      -10.7035408290
 C        -3.4473076393       -8.9133870674      -11.1810389210
 C         2.9683996298       -6.4714287490       -8.9135392849
 C         2.1045532280       -7.4418101876       -6.7815258219
 C        -1.0758945274       -2.1292147623       -5.7088633377
 C        -2.0063652334       -4.5385393687       -5.4020921211
 C        -6.1520394676        0.5848527629       -9.8345685592
 C        -4.5639560825       -0.7711568163      -11.3827948658
 C        -2.2935265892        4.8567580987       -8.3709792077
 C        -2.8829452902        6.0196740252      -10.4917266642
 C         5.0466921973        6.3919444339       -9.9487009244
 C         4.1546864925        8.8488769949      -10.1126878481
 C         4.8938965065        1.5748383381      -14.2068468637
 C         5.3008985366        3.7875879184      -15.4708587427
 C        -2.4056215464        2.3922297564      -14.6477974157
 C        -1.9070832826        2.6561850957      -17.1289093146
 C        -1.6343385003        9.9513168956      -16.1023661697
 C         0.2136383985        9.9488579061      -14.4488068011
 H        -3.8461082103       10.0301471409      -14.3148214183
 H        -2.5050013092       11.1442173298      -13.8881843251
 H        -3.3449622512       10.3720359464      -12.6141303977
 H        -1.2501267063        7.7147558287      -17.4622355824
 H        -2.5587279749        7.4642676052      -16.2922566473
 H        -0.4687068139        5.4440812311      -17.0577006699
 H        -2.0601353280        5.2712513674      -17.6361310622
 H         0.4890199424        2.0337187522      -17.0726516975
 H         0.0130144657        0.8862847457      -15.6403581466
 H         2.4478151520        0.8774131243      -16.1764671203
 H         2.1605821984        1.2828075320      -14.5415281889
 H         2.9468218017        5.4922693766      -14.4031217589
 H         4.3803785915        5.8998585682      -13.6841095784
 H         2.8385689593        5.1995457513      -11.4122841822
 H         1.8257277318        6.1967523571      -12.3524437386
 H         1.0497417867        8.1641839173       -9.9883333012
 H         1.6229520492        8.2837888562       -8.3163612928
 H        -0.6729469598        7.4897168626       -8.1398588328
 H         0.3099590543        6.0219602013       -8.0085131790
 H        -1.3630690963        2.3183227016       -8.8375246052
 H        -0.2794592341        2.1555320545      -10.1562908026
 H        -1.7550761789        0.2526084620      -10.1932929194
 H        -2.2411450514        1.1943025528      -11.6346000997
 H        -5.6546370056       -1.1419267980       -7.5742948557
 H        -4.9034582707        0.3641023883       -7.3397078191
 H        -4.4989213756       -1.2413113426       -5.3052552992
 H        -3.1606234083       -0.4872482315       -6.1151331629
 H         0.2398160502       -2.3294842956       -7.7858348097
 H        -0.6074827018       -2.5572386286       -9.3612590109
 H         1.8626546523       -3.7350465960       -9.0962150857
 H         0.6568936229       -4.7332598648       -9.7934497067
 H        -0.4572035605       -8.3180354733       -7.2726939296
 H         0.8677468635       -9.3971638152       -8.1498851450
 H        -1.6445381422      -10.0020531112       -9.1124249148
 H        -1.0125000462       -8.9892872011      -10.2544830456
 H        -5.1587692692       -9.6083119392       -9.0403648946
 H        -6.2084003304       -8.7094403454      -10.2375262383
 H        -7.5535403070       -9.1817899664       -8.0991855870
 H        -7.4113196091       -7.4620722162       -8.5158248008
 H        -9.4408286691      -10.2738879400       -6.3098056451
 H        -8.8306023974      -11.5958205470       -5.5176025966
 H        -9.9638577084      -12.6362660658       -7.1563031503
 H        -8.1771148450      -12.6838103999       -7.6333991802
 H       -12.8175137599      -10.1509369087       -7.1738846273
 H       -13.4033202754      -10.0769613512       -8.8446148293
 H       -12.9137040747       -7.6103697840       -8.9268358488
 H       -12.3670102190       -7.6971537872       -7.2190350577
 H       -14.7860001925       -8.2205730588       -2.9406652439
 H       -13.5308097073       -9.5032255785       -3.4498677100
 H       -15.0716383241       -9.4444856481       -4.2087741495
 H       -14.0605149006       -5.7387172829       -7.0173246700
 H       -14.2260501386       -5.4282150225       -5.4127877115
 H       -15.6485754665       -5.3659861406       -6.4604183372
 H       -16.6765608953       -7.6954666369       -4.6992097127
 H       -16.3588864142       -8.9409365943       -5.9804792228
 H       -17.0376593343       -7.3604669206       -6.2906251109
 H       -10.3001637278      -11.0658246542      -11.5359051476
 H       -11.2227215116       -9.6641598924      -10.9640842763
 H       -11.9246668287      -11.3001796837      -11.2063844227
 H       -11.6237758436      -12.7102444965       -8.1115741952
 H       -11.5836915958      -13.1268201544       -9.8575968077
 H       -12.7970264962      -12.1025319851       -9.2378713618
 H        -5.0093959315      -10.1824861912       -5.2979280721
 H        -6.0152395892      -10.3991083091       -3.9335766264
 H        -5.2023710282       -8.8295975532       -4.2746507020
 H        -7.8510063541       -7.9180250302       -4.2805038004
 H        -8.5675197462       -9.4079812728       -4.2165413229
 H        -8.9202877753       -8.3479283157       -5.5013330756
 H        -2.1052587755       -6.5017055174      -11.4230104862
 H        -2.6408358354       -5.8881720707       -9.8514887735
 H        -3.7329155911       -5.8881950952      -11.2407884731
 H        -2.4157989629       -9.1498147068      -11.5884998665
 H        -3.8970978994       -8.5621323743      -12.0678678427
 H        -4.0243131426       -9.7962519950      -10.9353918739
 H         3.9024087276       -6.2809562338       -8.3131820837
 H         2.7727633948       -5.7046104038       -9.6805162401
 H         3.3127826207       -7.4095441970       -9.4071338097
 H         1.2541229221       -7.6583204083       -6.1655911984
 H         2.7719439068       -6.8998768107       -6.1724855383
 H         2.6509943851       -8.3716054618       -7.0674423422
 H        -0.3886022400       -2.7469347111       -5.1372006386
 H        -1.6252319865       -1.5156423748       -5.0200017552
 H        -0.5509474902       -1.4263714622       -6.3936008197
 H        -2.3127958841       -5.4827145435       -5.9048238871
 H        -2.7225021957       -4.4539406871       -4.5544503888
 H        -1.0329148668       -4.7876293091       -4.8956915100
 H        -6.2800106825        0.9827075308       -8.8436954471
 H        -6.9243458758       -0.2360835043      -10.0007522946
 H        -6.3290529483        1.4536326289      -10.3628962350
 H        -3.6096675621       -0.8428111079      -11.8933294909
 H        -5.2691976199       -0.5002099115      -12.1201125103
 H        -4.8710111524       -1.7637059458      -11.0888459169
 H        -1.5510499596        4.3677068468       -7.7919830430
 H        -3.2382042171        4.2358069678       -8.3189291915
 H        -2.4899983311        5.8739334545       -7.9322701232
 H        -3.8114093054        5.6042068349      -10.4064671676
 H        -2.7166844994        6.0163018146      -11.5211353109
 H        -2.8014520190        7.0135237481      -10.0575779363
 H         4.6633907717        5.4982985982       -9.5036952207
 H         5.6377185220        6.8144309867       -9.1363666163
 H         5.7599750206        6.1610180154      -10.8261785879
 H         5.1148291379        9.0408255624      -10.6160491491
 H         4.2216362036        9.1931883306       -9.1669952094
 H         3.4286472053        9.5610704337      -10.5953742798
 H         5.5159037885        1.6927216974      -13.2611105601
 H         5.4291742841        1.0558637585      -14.9949268579
 H         4.1445695013        0.8240377252      -13.8782419541
 H         4.7327226366        4.5738400272      -16.0223969290
 H         6.0662441740        3.2573157236      -16.0927389800
 H         5.9599196246        4.3259365603      -14.6873224952
 H        -1.7676114952        1.8715641113      -14.0379036111
 H        -3.1021274336        1.7793422165      -15.2009346932
 H        -3.0138905808        2.9828163605      -13.9787345378
 H        -1.5376087078        1.6249477540      -17.3789382016
 H        -1.4509789736        3.3488027670      -17.8585421739
 H        -2.9744279346        2.6578842552      -17.3370036335
 H        -2.6088051204        9.5897080510      -16.2869067536
 H        -0.9303988236        9.7227158331      -16.8947203273
 H        -1.6933693081       11.0121154962      -15.8600993784
 H         0.9182400431        9.3845673002      -13.8799041651
 H        -0.0931507709       10.7845986184      -13.8610909261
 H         0.8979841833       10.4192841402      -15.2129776119
 Na       -0.7293843017        5.5782308781      -13.0962479413
 Na       -4.1109641386       -5.6019455186       -7.4796996627
