232

 C        -3.0730373884       10.2563068266      -13.6715283888
 C        -2.0999128874        9.1307838505      -13.8135946662
 O        -2.1837599656        8.1439624841      -13.0764571769
 C        -1.0013701776        9.2228233403      -15.0201524400
 C        -0.6407825375        7.6448734814      -15.3487697137
 O         0.3189805820        7.1180536052      -14.7486402529
 C        -1.4500151422        7.0902243817      -16.4699714919
 C        -1.3928131513        5.6351815152      -16.7513933907
 C        -1.9753895618        4.7555787418      -15.6279675484
 O        -2.5232019958        5.2340595743      -14.6077821663
 C        -1.6469318123        3.2478229938      -15.7718228444
 C        -0.1243482181        3.0740304918      -15.3400860016
 O         0.4485264569        3.8152871247      -14.5250435062
 C         0.6086356145        1.8310461868      -15.9741763094
 C         2.0690734277        1.6433985287      -15.4718290005
 C         3.0242066640        2.8510055997      -15.5975831119
 O         2.8360483019        3.7317086142      -16.3869058017
 C         4.2663451628        3.0188807114      -14.6966510415
 C         3.8890403611        3.7256923037      -13.4696263638
 O         3.9170617259        3.3151890922      -12.3139331628
 C         3.4553811249        5.1705732371      -13.7138173303
 C         2.8661925101        5.8924458716      -12.4474401991
 C         3.5034756726        7.1441646924      -11.8222923935
 O         3.8225207392        8.0283617180      -12.5568068103
 C         3.8718597682        7.2857749650      -10.2142733302
 C         2.5466486305        6.7250086863       -9.4325562449
 O         2.5167563026        5.5425114991       -9.2024284379
 C         1.4064933748        7.6732177798       -9.1219875196
 C         0.2063181412        6.7405032963       -8.7276396891
 C        -0.5332883354        6.0036914416       -9.8369122653
 O        -0.2238908459        6.2863700816      -11.0125949437
 C        -1.8638936747        5.1530079062       -9.7146598425
 C        -1.5227612736        3.8061588588      -10.6052467139
 O        -1.5623727586        3.8226722967      -11.8402898872
 C        -1.2402584380        2.4756577921       -9.8064151778
 C        -2.0337053455        1.2619005907      -10.4644674634
 C        -3.6196229664        1.3575446852      -10.1833039400
 O        -4.1095394881        2.4733642385      -10.0291052171
 C        -4.5512251941        0.0499005440       -9.9734740679
 C        -4.0689391555       -0.8260902001       -8.8838431721
 O        -3.1981439547       -1.6564096862       -9.0777935177
 C        -4.7159249045       -0.6822424569       -7.4887698685
 C        -3.8047724257       -1.1412293435       -6.4079518792
 C        -3.4650741409       -2.6188619169       -6.5972874600
 O        -4.3144822877       -3.4385824418       -6.8471144159
 C        -1.9570805255       -3.1537471124       -6.3153361101
 C        -1.4150210452       -3.8011394114       -7.6706037885
 O        -1.9075360438       -4.8265962993       -8.1341625288
 C        -0.3182274848       -3.2292893065       -8.4985133740
 C         0.8811439331       -4.0765403505       -8.8108174931
 C         1.2827437305       -5.1361897974       -7.7307130193
 O         1.1912327629       -4.8475876408       -6.5577528870
 C         1.7324850025       -6.6444486139       -8.1057322452
 C         0.5046536236       -7.4173274052       -8.8554249811
 O         0.2029946062       -6.9299650412       -9.9305596092
 C        -0.0532717642       -8.6855662239       -8.2481869479
 C        -1.1918134579       -9.1049633069       -9.1769585365
 C        -2.3793394708       -8.1848853542       -8.8630867841
 O        -2.5773615696       -7.5559654284       -7.8769895925
 C        -3.3762970388       -7.7813534400      -10.1062340210
 C        -4.7844652586       -7.5589900672       -9.4389197612
 O        -5.1029361995       -6.4734980455       -9.0604743385
 C        -5.7797682257       -8.7308488045       -9.2385409881
 C        -6.8275565634       -8.3745159215       -8.1964966740
 C        -6.3540805670       -8.2958318988       -6.6908567661
 O        -5.4669136035       -7.4884497410       -6.4171093284
 C        -6.9597410415       -9.2336970895       -5.6478730215
 C        -7.3842322177      -10.5426750126       -6.4451211389
 O        -6.4121225779      -11.0393708522       -7.0352910488
 C        -8.7741311915      -11.0844322857       -6.4989912157
 C        -8.9467168391      -12.2148437563       -7.5964969995
 C        -9.2280770442      -11.5593288913       -9.0610074400
 O        -8.3281065393      -11.4460502370       -9.8650335657
 C       -10.8425325784      -11.2329598721       -9.4017845551
 C       -11.2544249843       -9.9533492523       -8.5098143027
 O       -10.3141479311       -9.2086391881       -8.1379776222
 C       -12.7698284629       -9.7400357121       -8.2225413831
 C       -13.0775780649       -8.2708366508       -7.8300096817
 C       -14.5168614390       -8.0989974600       -7.3637888506
 O       -15.4677695847       -8.2821934119       -8.0930798266
 C       -14.9788582612       -7.5037570083       -6.0204956881
 C       -13.8709336310       -7.8590333734       -4.9301412042
 O       -12.7617600489       -7.4269385060       -5.0195191869
 C       -14.1631423980       -8.7990924862       -3.6515445809
 C       -14.9519225210       -5.9765222798       -6.3052597301
 C       -16.3931152023       -8.0194732497       -5.5986497752
 C       -10.9347332394      -10.6301932381      -10.9598813994
 C       -11.7890105008      -12.3043611689       -9.0322332117
 C        -5.8811563200       -9.5760673198       -4.5295187158
 C        -8.0731805074       -8.7264465298       -4.6799940312
 C        -2.9371308373       -6.4423802437      -10.7365419013
 C        -3.4342274699       -8.8638447650      -11.2049889710
 C         2.9810128342       -6.6062225323       -9.0261453178
 C         2.0771737760       -7.4205612112       -6.8073909784
 C        -1.0501243088       -2.0925887106       -5.6867896292
 C        -2.1800231731       -4.2837313762       -5.3845853002
 C        -5.9617289354        0.5728648354       -9.7810500365
 C        -4.5951135251       -0.6130006069      -11.3554164614
 C        -2.3594946582        4.8240315237       -8.2799847476
 C        -3.0460247752        5.8291471172      -10.6441814702
 C         5.0570804504        6.4990072244       -9.8405125440
 C         4.2566082860        8.8361108017      -10.0985376110
 C         4.8204944729        1.6056442918      -14.3418626002
 C         5.5067290601        3.7138403095      -15.3459226503
 C        -2.4676140839        2.4827467586      -14.7574601984
 C        -1.8617907085        2.7232576552      -17.1953163473
 C        -1.7765271550        9.9364160095      -16.2126146250
 C         0.2646296918        9.9493593785      -14.5066046411
 H        -3.9512651038       10.2565470972      -14.2841593198
 H        -2.5172224413       11.1890166746      -13.8077335783
 H        -3.3233962683       10.3527454004      -12.6124381733
 H        -1.2576388888        7.6621258650      -17.3503850722
 H        -2.6058929636        7.2435747622      -16.2096560011
 H        -0.3608798195        5.3187859393      -17.0977703978
 H        -2.0062469882        5.4343585093      -17.6301764712
 H         0.5162838210        1.8901639610      -17.0806792110
 H         0.1769158590        0.9181627078      -15.5551415446
 H         2.4225511530        1.0109603042      -16.2690400939
 H         2.1274075053        1.0299993323      -14.5824578731
 H         2.7416281512        5.2862632738      -14.5777296396
 H         4.3239726454        5.7611582141      -14.1081748794
 H         2.8008876658        5.1629528290      -11.6942945705
 H         1.8556603578        6.1276469414      -12.6506423280
 H         1.1766692491        8.3072919844      -10.0241696825
 H         1.7721326163        8.3181702103       -8.3247640424
 H        -0.6354005298        7.3592214179       -8.1948030743
 H         0.5590788227        6.1020699718       -7.9507727133
 H        -1.3914591503        2.5253204493       -8.7117026090
 H        -0.0987120949        2.2900716169       -9.9491415816
 H        -1.6906640195        0.3062876904      -10.1438743129
 H        -1.9120139084        1.3167262779      -11.6184131781
 H        -5.7690867908       -1.1388309623       -7.3656309854
 H        -4.8591962240        0.2818205974       -7.2864277237
 H        -4.3898498652       -1.1022553620       -5.4926360306
 H        -3.1098127822       -0.2999308672       -6.3231318195
 H         0.0268086247       -2.2743911671       -8.0637338265
 H        -0.9079816830       -2.9673433094       -9.4173466406
 H         1.7349181090       -3.4067668911       -9.1923508890
 H         0.7512862609       -4.7159836584       -9.6869076211
 H        -0.4817189743       -8.5317337139       -7.1610710882
 H         0.7803566270       -9.4144985883       -8.2362971815
 H        -1.4180062376      -10.2299141672       -9.1345070881
 H        -0.9162475101       -9.0606531768      -10.2572388869
 H        -5.2009392508       -9.5853992099       -9.0393400997
 H        -6.2984429659       -8.9039813914      -10.2199124688
 H        -7.7216043383       -9.0273652747       -8.2320105323
 H        -7.1933151903       -7.4420548574       -8.5485140933
 H        -9.4997102980      -10.2927613253       -6.6387704505
 H        -8.9892409233      -11.4264525109       -5.4836825709
 H        -9.8302754706      -12.8118487277       -7.2543507811
 H        -8.0156794683      -12.8428073524       -7.7108295402
 H       -13.0951130911      -10.4043369482       -7.4022217002
 H       -13.2642227824       -9.9210341205       -9.2011747766
 H       -12.7211199703       -7.6382274484       -8.6496901408
 H       -12.4039188157       -7.9979908123       -6.9589269710
 H       -14.7047219697       -8.1592148151       -2.9974312268
 H       -13.1919718092       -9.1622210869       -3.1784048589
 H       -14.7435118307       -9.6913092008       -3.8204957983
 H       -14.5211743638       -5.8095665476       -7.3037354305
 H       -14.2067718986       -5.5042786821       -5.7254721446
 H       -15.8348297116       -5.3550726912       -6.2154711952
 H       -16.7765006201       -7.3960138881       -4.7038743618
 H       -16.5607965277       -9.0603719461       -5.4646828238
 H       -17.1334244245       -7.7196762406       -6.3427113910
 H        -9.9888406266      -10.9001648190      -11.5581239494
 H       -10.9912053833       -9.5862483975      -10.9383176249
 H       -11.7008252034      -11.0893583633      -11.5987891878
 H       -11.8369503853      -12.6251018085       -7.9542398353
 H       -11.7448628932      -13.1220869925       -9.7089481546
 H       -12.8121537683      -11.9937381873       -9.2027009522
 H        -5.0225528078      -10.0565641012       -4.9619649520
 H        -6.4249077602      -10.2721675077       -3.8571173897
 H        -5.5456580155       -8.6916246558       -4.0093790183
 H        -7.8233485383       -7.8072396352       -4.2242509458
 H        -8.1743281822       -9.3594428604       -3.8349293198
 H        -9.0959069040       -8.5733028258       -5.0012536336
 H        -2.1485270365       -6.7453808095      -11.4110959631
 H        -2.5742344841       -5.7058836202      -10.0081839658
 H        -3.6712165181       -6.0472992859      -11.3687829660
 H        -2.5167318952       -9.0364990138      -11.6653042076
 H        -4.1202558830       -8.7106519426      -12.0981894446
 H        -3.8119455921       -9.7664399849      -10.7501422959
 H         3.8409578953       -6.6531081497       -8.3286796078
 H         3.0577686106       -5.8747269609       -9.8106762578
 H         3.1882363426       -7.5866536052       -9.4537563855
 H         1.2486893543       -7.3356822739       -6.0860896981
 H         2.9845759105       -7.0444487161       -6.2887074093
 H         2.3013507161       -8.4989362769       -7.0357368505
 H        -0.2139610463       -2.6371717207       -5.3218306011
 H        -1.5474961181       -1.5449385252       -4.8683248822
 H        -0.7855115127       -1.3274233515       -6.4300031091
 H        -2.2792026439       -5.1989243294       -5.9426649580
 H        -3.0511797300       -4.2807162606       -4.7956484310
 H        -1.4173761183       -4.4362811985       -4.6668253176
 H        -6.4414288916        0.5870494546       -8.8189120941
 H        -6.5844964080       -0.1040130565      -10.3871863982
 H        -6.0616511511        1.6416159808      -10.0515573177
 H        -3.6189889798       -0.6416007563      -11.8424634268
 H        -5.2420538135       -0.2078484223      -12.0839709499
 H        -4.9300985464       -1.6074585765      -11.2006127496
 H        -1.4648925476        4.5899873374       -7.7537101885
 H        -3.1125990130        4.0427891293       -8.0621273743
 H        -2.6915098010        5.7803006041       -7.8927185000
 H        -4.0032405947        5.4788415419      -10.3466256284
 H        -3.0007665418        5.4027778211      -11.6201944347
 H        -2.9306373586        6.8844662849      -10.6723788189
 H         4.7884729890        5.4954874298       -9.4351291435
 H         5.7506780129        6.9209564823       -9.1279406549
 H         5.6007071182        6.4066537155      -10.7484612573
 H         5.1100268078        8.9168945409      -10.7520880292
 H         4.4731693839        9.3005520733       -9.1243498620
 H         3.5274243488        9.5216229068      -10.5209652721
 H         5.5528957097        1.6149113100      -13.5298959940
 H         5.2321501149        1.0892502625      -15.1968492425
 H         4.0461567413        0.9660446458      -13.9346669882
 H         5.1224498764        4.4718201618      -16.1196958465
 H         6.1108809571        2.9122853476      -15.8487457918
 H         6.2895722334        4.2000480736      -14.6525828518
 H        -1.9227933739        1.6343064761      -14.4168590091
 H        -3.5179285914        2.3103255611      -15.1139008760
 H        -2.5631803952        3.0885183443      -13.8835851911
 H        -1.6550620965        1.6852774527      -17.3688040021
 H        -1.2223910275        3.3207907909      -17.9580080655
 H        -2.9398027061        2.9980404484      -17.4587620501
 H        -2.8116764734        9.4929624080      -16.2421600753
 H        -1.1935081058        9.7542116468      -17.1360682093
 H        -1.8546747783       11.0024305028      -15.9117974842
 H         0.7269097951        9.3328668803      -13.7642187586
 H         0.1122100177       10.8916912696      -14.0280628905
 H         1.1134949045       10.0867697425      -15.1884082633
 Na       -0.8083377196        5.7207577498      -13.2247505802
 Na       -4.1246883156       -5.6200638347       -7.4624235230
