232

 C        -3.0383459680       10.2626234072      -13.5494900706
 C        -1.8937388786        9.2478648216      -13.7633492491
 O        -1.5872042317        8.4079896280      -12.9516526747
 C        -1.0239474164        9.3000359588      -15.1463043669
 C        -0.6900393527        7.8346992274      -15.6428175258
 O         0.0321513994        7.1886331909      -14.8573804174
 C        -1.4587146272        7.1215959949      -16.7170059549
 C        -1.0175800486        5.6254693817      -16.6827736691
 C        -1.9144425025        4.7676996435      -15.8894127529
 O        -2.6164498021        5.2438478082      -14.9833630949
 C        -1.7382182656        3.1708176244      -15.8719910478
 C        -0.1431375977        3.0658689793      -15.3492890762
 O         0.2354621478        3.7546504411      -14.3712152113
 C         0.7639236236        1.9683793153      -15.9914949237
 C         1.9736719936        1.8936399326      -15.0454812709
 C         3.0894794473        2.8508963189      -15.5744873543
 O         3.0277037833        3.5528534219      -16.5211886235
 C         4.3934377642        2.9074051675      -14.6127802440
 C         3.9734900777        3.6991135582      -13.4240554209
 O         3.8311893856        3.1004921865      -12.3529041926
 C         3.3561538478        5.1302821100      -13.6881301910
 C         2.8017512263        5.7224232983      -12.3293089977
 C         3.5064847443        6.9821067064      -11.9430167503
 O         4.0275488854        7.8074830592      -12.5667024973
 C         3.6031189481        7.1692456197      -10.2781085232
 C         2.5383855841        6.4376560114       -9.4934937957
 O         2.5392591568        5.2457646084       -9.1222700424
 C         1.3680850374        7.3115564726       -9.1143611064
 C         0.0889111200        6.5971942878       -8.9011251073
 C        -0.6835229112        6.1662868268      -10.1244489337
 O        -0.4156786694        6.5850552045      -11.2521974311
 C        -1.9203091673        5.0816851867       -9.9253588082
 C        -1.4530599084        3.8364823889      -10.6179340077
 O        -1.1008143142        3.8780328938      -11.8089250451
 C        -1.0495961972        2.5777262557       -9.8003709486
 C        -1.8722266210        1.3232080025      -10.1943138085
 C        -3.4897927623        1.6102493137      -10.0288144975
 O        -3.9263963813        2.7678679998      -10.1104338091
 C        -4.4794366812        0.4449222549      -10.1597592797
 C        -3.9966874564       -0.5014342879       -8.8653047260
 O        -3.0479971341       -1.2489581217       -9.1257974082
 C        -4.5809729739       -0.4260792477       -7.5179738125
 C        -3.6394295472       -1.0342494113       -6.4202651169
 C        -3.2708082107       -2.5555815299       -6.6013327207
 O        -4.1755515787       -3.3774688294       -6.9482170010
 C        -1.8142783206       -3.1366330276       -6.1365025472
 C        -1.3764472761       -3.9579150029       -7.4518443975
 O        -1.7917446750       -5.0479017189       -7.7255783869
 C        -0.2618841339       -3.2463666150       -8.2473757898
 C         0.5740229316       -4.2621848107       -8.9675438506
 C         1.0898141427       -5.1469028274       -7.8645177012
 O         1.1370912790       -4.7987267182       -6.6892415215
 C         1.5957783161       -6.5947917829       -8.1795603454
 C         0.4123577418       -7.3735467727       -8.8425880567
 O        -0.1205177140       -6.8697303514       -9.8055376179
 C        -0.0181116334       -8.7703419909       -8.4222380402
 C        -1.3716405508       -9.2184749397       -8.9990852760
 C        -2.5535145692       -8.2725363702       -8.8691214286
 O        -2.6433447613       -7.5272739674       -7.9091610113
 C        -3.5541859942       -8.0116166847      -10.0520147826
 C        -4.9636186267       -7.6393096755       -9.4919616531
 O        -5.3251787377       -6.4895121196       -9.4091218671
 C        -5.8342055600       -8.8416686166       -9.0459140869
 C        -6.9906131791       -8.2559374853       -8.1940070079
 C        -6.4146102817       -8.0892886517       -6.7370853098
 O        -5.6541458709       -7.2907687901       -6.3107579278
 C        -7.0790267010       -9.2037256995       -5.7208215749
 C        -7.2940967577      -10.6148027318       -6.4405045333
 O        -6.3062013668      -11.2003092983       -6.8609600575
 C        -8.6640706195      -11.3169980562       -6.4208168651
 C        -8.9183077371      -12.1100801072       -7.7036232985
 C        -9.1612278999      -11.4768232468       -9.0988689815
 O        -8.2477696248      -11.4031748804       -9.9124375289
 C       -10.7287383499      -11.1401969789       -9.4403129850
 C       -11.3205297917       -9.9761204515       -8.6107531536
 O       -10.5900768210       -9.2620765202       -7.9835484767
 C       -12.8212265967       -9.5981948771       -8.5032219842
 C       -13.0707772671       -8.4286380640       -7.5413999344
 C       -14.4995298858       -8.3346195777       -7.2572885442
 O       -15.3793559918       -8.8236278838       -7.9185851272
 C       -14.9775498086       -7.6101342263       -5.7188737649
 C       -13.8029557657       -7.7680470561       -4.7692381713
 O       -12.8561611360       -7.0332618783       -4.9200396542
 C       -14.0387050158       -8.5653974679       -3.5293721112
 C       -15.2570104447       -6.0981104421       -5.9803033100
 C       -16.2275354125       -8.3084881213       -5.3673436818
 C       -11.0564738096      -10.6218458558      -10.8734318089
 C       -11.4884281938      -12.4496189886       -9.2485805170
 C        -6.0376146682       -9.4549147002       -4.5507190139
 C        -8.3678470207       -8.5546962923       -5.2851521954
 C        -3.1446739851       -6.6773199464      -10.7753142688
 C        -3.5771366454       -9.1753802083      -10.9771201823
 C         2.7762252136       -6.6490168609       -9.2143568403
 C         2.1013408216       -7.2809270593       -6.8706442036
 C        -0.8481655085       -2.0379586176       -5.6586381689
 C        -2.0631876852       -4.1238919916       -5.0558126829
 C        -5.9831247637        0.8990090200      -10.1847492862
 C        -4.0878406176       -0.3835977690      -11.4118531964
 C        -2.0679387194        4.9830755950       -8.3784156117
 C        -3.1140887271        5.8174004433      -10.5417482191
 C         4.8659347342        6.3364268497      -10.1440763625
 C         3.8033044999        8.6195463877       -9.9221955092
 C         4.9707012750        1.5664383308      -14.1121998519
 C         5.5083098927        3.5309436886      -15.5643866453
 C        -2.5395637303        2.3818246979      -14.8950331970
 C        -1.7647343169        2.5989777409      -17.2721424560
 C        -1.6789089174       10.1412510547      -16.2135796909
 C         0.2529686076       10.0430985091      -14.7146891818
 H        -3.6471007750       10.2439741922      -14.4758547578
 H        -2.6468526222       11.2694031039      -13.4650430315
 H        -3.6758216232       10.1492360705      -12.6737788219
 H        -1.4295061761        7.4885339134      -17.7543668947
 H        -2.5397563211        7.1731700349      -16.4446076965
 H        -0.0678312155        5.4963278738      -16.1866139275
 H        -0.8719270406        5.2949933940      -17.6932405072
 H         1.1428725921        2.2531806432      -16.9922997791
 H         0.2137135730        0.9735455219      -16.0531319946
 H         2.3982322860        0.9025725194      -15.1939087984
 H         1.7947326749        2.0719701409      -13.9584392415
 H         2.5806253946        4.9979273465      -14.4498747994
 H         4.1123643995        5.6965403932      -14.1673191205
 H         3.0517178062        4.8947294710      -11.5511937296
 H         1.6785509331        5.8161988876      -12.3725371577
 H         1.2347854196        7.8589693486      -10.0272800659
 H         1.5998265903        8.0226129764       -8.3180827295
 H        -0.4964628463        7.2302981591       -8.1493893932
 H         0.3181315591        5.6916447079       -8.3602065846
 H        -1.1424045808        2.7843811744       -8.8072824986
 H        -0.0081350950        2.4091263524      -10.0266715279
 H        -1.6473178531        0.4045697858       -9.7118220155
 H        -1.6990031347        1.1921074789      -11.2931849978
 H        -5.4757396962       -1.0740069333       -7.3781460751
 H        -4.9203428787        0.4999716150       -7.3329791439
 H        -4.1267842339       -0.9344297566       -5.4171846202
 H        -2.8003589034       -0.4000226003       -6.3575295428
 H         0.3528410102       -2.6485222701       -7.6126597590
 H        -0.7208435085       -2.5604993207       -9.0231304833
 H         1.4870934500       -3.7692386560       -9.4470783652
 H         0.0503111328       -4.8610201452       -9.6995338531
 H        -0.0568810836       -8.6690968063       -7.2599669095
 H         0.7530727834       -9.5921001619       -8.6091376211
 H        -1.5178939648      -10.2541864167       -8.6747571337
 H        -1.2039749948       -9.3448393768      -10.0032572103
 H        -5.3322817503       -9.5715671222       -8.3513948919
 H        -6.2018531040       -9.4635926187       -9.9294792380
 H        -7.8592941849       -9.0006692117       -8.2453065028
 H        -7.4695008333       -7.2649784927       -8.4650837470
 H        -9.3931969366      -10.5580751304       -6.1411208727
 H        -8.6545869141      -12.0439885993       -5.6256420663
 H        -9.6087508698      -12.9265987922       -7.5075040526
 H        -7.9390657448      -12.5374291160       -7.8236472950
 H       -13.3550140095      -10.4509817165       -8.0955708397
 H       -13.1491549508       -9.3852387964       -9.4644628662
 H       -12.6208625410       -7.5370803093       -8.0224073820
 H       -12.4988165858       -8.6097711683       -6.5986581609
 H       -15.0102627217       -8.4191018637       -3.0493670271
 H       -13.2428951974       -8.2163482433       -2.7943062953
 H       -13.9312046128       -9.6383450315       -3.7054206407
 H       -16.2669739293       -5.8395749455       -6.2738771872
 H       -14.6410695169       -5.6669159405       -6.7643342216
 H       -14.9539761573       -5.4351866669       -5.1269967124
 H       -16.7015000198       -7.8821895047       -4.4595962233
 H       -16.0618339284       -9.3556307658       -5.0897701203
 H       -16.9491466873       -8.3619558672       -6.1399281948
 H       -11.1201890601      -11.4455464339      -11.6444415851
 H       -10.1595234908      -10.0320654018      -11.0669142247
 H       -11.9437143501      -10.0948766270      -11.0444855597
 H       -11.9187856156      -12.7062596421       -8.2775127664
 H       -10.9990337884      -13.2828832211       -9.6751782597
 H       -12.4541446553      -12.3305328680       -9.7994851837
 H        -5.1740006679       -9.8913257761       -4.9964043891
 H        -6.4355868691      -10.0060717817       -3.7049801763
 H        -5.7834959407       -8.4594978924       -4.1425290092
 H        -8.2458206043       -7.6894007991       -4.6622284122
 H        -8.9411441194       -9.1707615969       -4.6124471634
 H        -9.1316218841       -8.2674310923       -6.0842621266
 H        -2.0316689364       -6.7022721419      -11.0127256748
 H        -3.4794549643       -5.7623090988      -10.2816514161
 H        -3.6654988367       -6.7532872016      -11.7451333628
 H        -2.6377895726       -9.2009064853      -11.5574331212
 H        -4.3742733591       -9.1565663821      -11.7386700980
 H        -3.6473314885      -10.1700726585      -10.5139137445
 H         3.5607650271       -5.8976029365       -8.8653089664
 H         2.4915837343       -6.6052764425      -10.2405479760
 H         3.2541236109       -7.6420759398       -9.1147812457
 H         1.3168740565       -7.3991878389       -6.1785362788
 H         2.8706976259       -6.7582430108       -6.4062971318
 H         2.4574376755       -8.2939113599       -7.1106664337
 H        -0.0525070576       -2.5431233680       -5.1425038034
 H        -1.2928984719       -1.3021002669       -5.0028337467
 H        -0.4450699993       -1.4468559246       -6.5168851479
 H        -2.9446190666       -4.7715008272       -5.3021462389
 H        -2.4381423050       -3.6918148219       -4.0984454436
 H        -1.1926976532       -4.6760695391       -4.6380147779
 H        -6.4207489555        1.1056564712       -9.2333974462
 H        -6.6981140087        0.2286013353      -10.7096659597
 H        -5.9707487144        1.8507130939      -10.6264334327
 H        -3.2012738241       -1.0668335732      -11.3392331372
 H        -3.7911479307        0.2752644961      -12.2330406221
 H        -4.9379231793       -0.9589234272      -11.8071871616
 H        -1.2818857331        4.4700582181       -7.8896342621
 H        -3.0721580637        4.4602341031       -8.1563162036
 H        -2.3976591373        5.9565451141       -7.9640367076
 H        -3.9704381500        5.1816569015      -10.4970527973
 H        -2.8934818504        5.8352342772      -11.6284120457
 H        -3.2397374105        6.8789979925      -10.1657312603
 H         4.8837248548        5.4802031953      -10.8446257771
 H         4.8846340780        5.9650609904       -9.1199907380
 H         5.8053451080        6.9212445392      -10.1684138158
 H         4.5634273503        9.1296749329      -10.5313942592
 H         3.9141903312        8.8122434191       -8.8933779562
 H         2.8189826916        9.1263648393      -10.1793521267
 H         6.0454293874        1.3351616863      -14.2912534691
 H         4.6186978506        0.7650767384      -14.7249349373
 H         4.6850902465        1.3695512409      -13.0531599413
 H         5.3964311574        4.5260363316      -15.9023146026
 H         5.5875737977        2.9767957974      -16.4439817199
 H         6.4148227728        3.4250800302      -14.9904472940
 H        -3.2174274821        1.8023947148      -15.4393952325
 H        -3.0180757740        3.0586342923      -14.1336217429
 H        -1.9497053410        1.6395566410      -14.3647843778
 H        -1.6993286303        1.5653862655      -17.3501862732
 H        -0.8508775772        2.9109123946      -17.7990028397
 H        -2.5353730595        3.0122689119      -17.8756390182
 H        -2.4519546467        9.5831840068      -16.6133607927
 H        -0.8949123320       10.2181437856      -16.9217696071
 H        -1.9325573005       11.1165711921      -15.8830535642
 H         0.6650674790        9.6976905439      -13.7930745959
 H         0.0293866780       11.0470324120      -14.3918075629
 H         1.1764160636       10.0555609910      -15.4008438905
 Na       -1.0554194592        5.9311625201      -13.1737693941
 Na       -4.0365719537       -5.8878982905       -7.0955708394
