232

 C        -2.6366385567       10.3933659726      -13.4975239605
 C        -1.8022797006        9.1660697679      -13.8870918287
 O        -1.8493359567        8.1543348595      -13.2334535189
 C        -0.9267589926        9.2471123042      -15.2623882370
 C        -0.7006026877        7.7219786828      -15.6712863659
 O        -0.0227833551        6.9103863043      -15.0500572246
 C        -1.2976650965        7.3210893824      -16.9256812155
 C        -1.2904311494        5.8089700381      -17.2244086251
 C        -1.9137627405        5.0141257221      -16.1579838914
 O        -2.6331070931        5.5979293852      -15.3653527870
 C        -1.5489308666        3.4628518939      -15.9951790086
 C        -0.2382143956        3.1799546483      -15.2614564625
 O         0.2123378639        3.9079720256      -14.3915841087
 C         0.5658559947        1.8121580387      -15.6205593305
 C         1.8964531784        1.8392695092      -14.8046510741
 C         3.2046432513        2.5729613344      -15.6249462472
 O         3.0651081221        2.9242751160      -16.7667305803
 C         4.5478978815        2.8950585981      -14.6792443439
 C         4.0036121805        3.5222638373      -13.4017388736
 O         3.9973353997        2.9894649827      -12.2933612205
 C         3.5018506863        4.9715125759      -13.5602236337
 C         2.8281035408        5.6298569919      -12.2917603632
 C         3.5547452417        6.7845048458      -11.8241360689
 O         3.8737125639        7.7448803588      -12.5379207841
 C         3.7578273552        6.9352470569      -10.3254474320
 C         2.4274209877        6.4748855615       -9.5946084933
 O         2.3269174741        5.2623881968       -9.4712828270
 C         1.3614583547        7.3614906507       -8.8989249017
 C         0.0307679668        6.7120778613       -8.7833817821
 C        -0.6961439897        6.3254655871       -9.9855089249
 O        -0.2657397239        6.6280993773      -11.0874352769
 C        -1.8909996785        5.3693603850       -9.8009044928
 C        -1.4311006991        4.0154246850      -10.5976101117
 O        -1.3788149327        4.0324313977      -11.8030154490
 C        -0.9134563242        2.7471527597       -9.6924958172
 C        -1.5176910802        1.5703776510      -10.3410213552
 C        -3.0946488592        1.8001599848      -10.1841471309
 O        -3.5967898036        2.8431764461       -9.8799493058
 C        -4.0463496584        0.4163077381      -10.1687447526
 C        -3.5832395629       -0.5889304237       -9.0509751937
 O        -2.4431760724       -0.9941802637       -9.1695250221
 C        -4.5033133702       -0.7100802332       -7.8364739694
 C        -3.7520612863       -0.8951857154       -6.4829671682
 C        -3.4065159375       -2.3492785899       -6.4298510870
 O        -4.2159111688       -3.2056185111       -6.8664132371
 C        -1.9977668826       -2.8623412940       -6.0047902012
 C        -1.4365217107       -3.7483642332       -7.2066155067
 O        -1.9033627447       -4.7998879444       -7.4662973658
 C        -0.2552312501       -3.1929848722       -8.0131141986
 C         0.3598410708       -4.2805950169       -8.8362544258
 C         1.0558936788       -5.2564612547       -7.7917435702
 O         1.0254119988       -4.9692000503       -6.6092239874
 C         1.5203899270       -6.6647108611       -8.3622567036
 C         0.2549740814       -7.5177325848       -9.0158175264
 O        -0.1783890451       -7.1480501080      -10.0857281356
 C        -0.3182123411       -8.7684936413       -8.3238075976
 C        -1.5202612227       -9.4545594259       -8.8111102410
 C        -2.8024402631       -8.5277147149       -8.8255604550
 O        -2.9537493499       -7.8651475771       -7.8365788761
 C        -3.6951694551       -8.2792970079      -10.1111868311
 C        -4.9746691584       -7.6711121047       -9.5036503060
 O        -4.8693424913       -6.4995129289       -9.3202462749
 C        -6.2042281491       -8.5338226877       -9.1887361022
 C        -7.2062366769       -8.0021343992       -8.1123547435
 C        -6.5913950246       -8.0937525651       -6.6696634913
 O        -5.7053992870       -7.3326319379       -6.3708725603
 C        -7.4062438884       -9.0918441725       -5.6786860886
 C        -7.4010188173      -10.5162937642       -6.4186886242
 O        -6.2586556298      -10.8270517531       -6.8334883538
 C        -8.5717642644      -11.6295001391       -6.4439904851
 C        -8.6551673627      -12.3051830244       -7.7999889323
 C        -9.1060203533      -11.3228753609       -8.9617415000
 O        -8.3096838471      -10.5531167748       -9.4398313358
 C       -10.7061419521      -11.0937829048       -9.4655061686
 C       -11.1961612313       -9.9455844437       -8.6266611629
 O       -10.3227881477       -9.2539912980       -8.0789974902
 C       -12.6743863364       -9.5362787548       -8.4337236567
 C       -12.9592409565       -8.6323837028       -7.2431644403
 C       -14.4160791011       -8.8594323012       -6.7978317867
 O       -15.1905871351       -9.4777274929       -7.4855459591
 C       -15.0540790407       -7.8823051147       -5.5678951739
 C       -13.8592814892       -7.6000707142       -4.6299247680
 O       -13.1013644626       -6.6635180521       -4.7352567376
 C       -13.7839011950       -8.4907649622       -3.3594488620
 C       -15.4786479136       -6.5664235506       -6.2365584508
 C       -16.2654377502       -8.5616750760       -4.7996597263
 C       -10.6697459906      -10.6875894571      -11.0070901901
 C       -11.6441352522      -12.2595464723       -9.3335851411
 C        -6.5080196841       -9.2889021801       -4.4226943396
 C        -8.8166752536       -8.5713336237       -5.2734744050
 C        -2.9446557094       -7.2790340446      -11.0997245236
 C        -4.0386193253       -9.6772241481      -10.8720219336
 C         2.4733729825       -6.5525062667       -9.5403758070
 C         2.2626804127       -7.4435820963       -7.1936713335
 C        -1.0160674963       -1.7308782585       -5.5764928246
 C        -2.3022983638       -3.8754103476       -4.8810572953
 C        -5.4750867590        0.8916408040       -9.9348211732
 C        -3.8918453469       -0.2571375143      -11.5715936600
 C        -2.4385298593        5.1975322887       -8.4487790984
 C        -3.0207280299        5.8389716437      -10.7330266090
 C         4.8418915228        6.0072675512       -9.7974824158
 C         4.2303416766        8.4957119278      -10.0030983932
 C         5.1521359610        1.4839058625      -14.2748382782
 C         5.5939676258        3.8118246404      -15.4104765211
 C        -2.7336802046        2.7134528218      -15.1322988179
 C        -1.5027293660        2.7935585844      -17.3915758854
 C        -1.7809953089       10.0186807917      -16.2665976260
 C         0.2835887077       10.0651448505      -14.9359250940
 H        -3.5894724149       10.3716316846      -13.9948305505
 H        -2.1807104147       11.3196692670      -13.8227529617
 H        -2.9205951439       10.4397728264      -12.4509997326
 H        -0.9156830959        7.9347838033      -17.6929827374
 H        -2.4077218620        7.5974649564      -16.8044392971
 H        -0.2942818256        5.4596243106      -17.4467921489
 H        -1.9771327108        5.6090705909      -18.0554297751
 H         0.7343361338        1.7030770707      -16.6911548995
 H        -0.0958558996        0.9779478723      -15.3131637217
 H         2.3038660473        0.8378983260      -14.5948137206
 H         1.6793611934        2.3564471474      -13.8210967342
 H         2.8663421500        4.8211404193      -14.4382837978
 H         4.2757054207        5.6423940676      -13.8595747889
 H         2.7714967734        4.8580643985      -11.4375883375
 H         1.8232805929        5.9659154698      -12.6586025923
 H         1.2678215915        8.2113764972       -9.5664118710
 H         1.7340184398        7.7708664356       -7.9556047550
 H        -0.5359736543        7.4466337312       -8.1202862149
 H         0.1419924548        5.8684342374       -8.1854010288
 H        -1.2415034646        2.7254503867       -8.7142319643
 H         0.1513357700        2.6747891368       -9.7428361044
 H        -1.2049781851        0.6499224917       -9.9491019880
 H        -1.3979091612        1.5708663676      -11.4491464346
 H        -5.1630051481       -1.6347506087       -7.9416571875
 H        -5.1268267956        0.0521310240       -7.6749375713
 H        -4.3862323965       -0.5466226008       -5.6462328475
 H        -2.9474197660       -0.1703501073       -6.4884872918
 H         0.5132843115       -2.6498373136       -7.5436389938
 H        -0.8094517552       -2.4951950293       -8.6625021350
 H         1.1810491396       -3.8588557723       -9.4771640552
 H        -0.3658459378       -4.8912303182       -9.2744118025
 H        -0.5035725446       -8.4903753192       -7.2279631315
 H         0.4462602435       -9.4995184311       -8.2520470631
 H        -1.6536031366      -10.3586608522       -8.2742241329
 H        -1.2479736759       -9.7496913641       -9.7677702075
 H        -5.7921743863       -9.5038682956       -9.0068009650
 H        -6.8415374018       -8.6520468718      -10.0862816163
 H        -8.1362611737       -8.6045252302       -8.1880193377
 H        -7.3682230587       -7.0066410456       -8.4875410699
 H        -9.5718678104      -11.2266334499       -6.1588009876
 H        -8.1953390584      -12.3122946439       -5.6307163215
 H        -9.1075515960      -13.2797415840       -7.8159281650
 H        -7.6365585597      -12.4618967036       -8.0380139253
 H       -13.2836932924      -10.4779709077       -8.3526731448
 H       -13.0436703656       -9.0576396341       -9.3274563882
 H       -12.7844736059       -7.6020806780       -7.4902018975
 H       -12.3508664364       -8.9904365398       -6.4239927880
 H       -14.4089546541       -8.1816600514       -2.5478285768
 H       -12.7552925583       -8.3391929517       -2.9119638031
 H       -14.0841173055       -9.4841745864       -3.5807048874
 H       -14.9812391968       -5.6523646767       -5.8383028616
 H       -16.5223068566       -6.3691357036       -6.3688169124
 H       -15.2172337395       -6.5751179252       -7.3106779047
 H       -16.8118731433       -7.8064055876       -4.1691099499
 H       -16.0461719546       -9.3131267519       -4.0971181449
 H       -16.9450166392       -8.9919361098       -5.4624484648
 H       -11.7122557208      -10.4591323044      -11.4847547258
 H       -10.2536260568      -11.5248602223      -11.5650126423
 H       -10.0431487479       -9.8259015362      -11.1955256290
 H       -11.8175608919      -12.6492222866       -8.2772575583
 H       -11.3956991867      -13.1734055053       -9.8018716432
 H       -12.6005724089      -11.9077198541       -9.7518649615
 H        -5.5425964575       -9.6543164312       -4.8099380682
 H        -6.8475000247      -10.0093818179       -3.6106863168
 H        -6.4133327302       -8.3194616294       -3.8739061591
 H        -8.8889850618       -7.6784514313       -4.6335830188
 H        -9.3851262450       -9.3733563580       -4.7545071457
 H        -9.4914904918       -8.3242847538       -6.1205915892
 H        -2.1049833990       -7.8256222309      -11.5675109570
 H        -2.6361115915       -6.3859340476      -10.5023809424
 H        -3.6848474955       -6.9831349524      -11.8177912323
 H        -3.2502979177      -10.1845942717      -11.3167680412
 H        -4.8745110305       -9.6247998745      -11.6372304011
 H        -4.2607158474      -10.4434232339      -10.1614681900
 H         3.3535081443       -6.0195365297       -9.2081296084
 H         2.0417802905       -5.9698187850      -10.3076932171
 H         2.5905549250       -7.5212354106       -9.9337871197
 H         1.5209336506       -7.5183542446       -6.3955259990
 H         3.1440641517       -6.9632039082       -6.7498539342
 H         2.4542563487       -8.5269287436       -7.4099424182
 H        -0.0420642320       -2.1167244359       -5.3949149628
 H        -1.3368687129       -1.2451767879       -4.6605298526
 H        -0.8673311299       -1.0095979498       -6.4002092379
 H        -3.1956092933       -4.4236295165       -5.1506293618
 H        -2.4618936845       -3.4434066210       -3.9213795801
 H        -1.5953002294       -4.6648079717       -4.7608633513
 H        -5.4936343333        1.6957584689       -9.1807244763
 H        -6.1404076696        0.1047822376       -9.5427298676
 H        -6.0247667390        1.0995338687      -10.8601549765
 H        -2.8771225406       -0.6416004007      -11.7965130103
 H        -4.2607586032        0.3213900329      -12.4103237914
 H        -4.4556396597       -1.1912485786      -11.5858390458
 H        -1.7052124185        5.0697546765       -7.6545321237
 H        -3.2172895651        4.3961499824       -8.3765274189
 H        -2.9267831016        6.1283695587       -8.0720286213
 H        -3.5268413967        5.0582484480      -11.3467727791
 H        -2.5518820372        6.6718455161      -11.3254102355
 H        -3.8108842879        6.3695495089      -10.1468633555
 H         4.5692032007        4.9931607080      -10.0931882455
 H         4.9385613416        6.1983773624       -8.7573454825
 H         5.7908651415        6.1455963532      -10.2442419236
 H         5.0337907259        8.7436541791      -10.6678594196
 H         4.7113893405        8.5959438342       -8.9777653665
 H         3.4042834522        9.1840767415      -10.2125792612
 H         5.8466999409        1.5030041004      -13.4103502943
 H         5.7891199953        1.2128820519      -15.1035540373
 H         4.4496905855        0.6414856588      -14.1313895274
 H         5.2658905742        4.5436672181      -16.0789529520
 H         6.1899824688        3.1686578939      -15.9717401247
 H         6.1547869757        4.2810832060      -14.6620417957
 H        -3.4680650797        3.4261057942      -14.7313533894
 H        -2.2421407010        2.1318869346      -14.2644698609
 H        -3.1858124822        1.9183191867      -15.7431032242
 H        -1.3818416610        1.7729360725      -17.4160634803
 H        -0.5701329187        3.1452617464      -17.9205076911
 H        -2.3149724939        3.0144237954      -18.0826446530
 H        -2.7545084951        9.5454289971      -16.4260798681
 H        -1.2110303196       10.0218592777      -17.2054252491
 H        -1.7759450154       11.0684337696      -15.9299490827
 H         0.9203005220        9.6925943555      -14.1430478048
 H         0.0066001017       10.9937267659      -14.4447119850
 H         0.9398989492       10.3567478989      -15.7810982154
 Na       -1.0979000799        5.8091744985      -13.2649433952
 Na       -4.0224086013       -5.7337834792       -7.4028604660
