232

 C        -2.2641749864       10.3571954859      -13.3623917018
 C        -1.9142209145        9.0077718687      -13.9392096508
 O        -2.1918785032        8.0063805913      -13.2956948771
 C        -1.0450004428        9.1253265195      -15.3535222019
 C        -0.7487409448        7.7921642672      -15.9272680572
 O         0.0206156925        7.0506269400      -15.3468619413
 C        -1.3314466177        7.3148099627      -17.2203753518
 C        -1.1703031516        5.7776843602      -17.3720275307
 C        -1.7938534219        4.9724637698      -16.2079268050
 O        -2.3273547732        5.5708317430      -15.2748828489
 C        -1.5504778108        3.5200030617      -16.1358687590
 C        -0.1104164806        3.4037007540      -15.2387047955
 O         0.2213872973        4.2240936023      -14.3810652338
 C         0.6371861567        2.0964482399      -15.4626481397
 C         1.9634329198        1.9155372830      -14.7690516399
 C         3.0902214213        2.4492512131      -15.6083037510
 O         3.1282635896        2.6838067487      -16.7737967461
 C         4.4853619965        2.7828022943      -14.7382379250
 C         3.9843938851        3.5530239213      -13.4768755602
 O         4.0524553577        3.0308449730      -12.3859025497
 C         3.3697483159        4.9295963636      -13.5948728569
 C         3.0147047439        5.4026182291      -12.1800074215
 C         3.4816419546        6.8363337275      -11.7472455326
 O         3.8467578705        7.6798836109      -12.4671965006
 C         3.7253679823        6.9428251965      -10.1908389277
 C         2.4473116537        6.4851831492       -9.4410216236
 O         1.9458686242        5.3791884957       -9.5508157886
 C         1.4585367353        7.6246873699       -8.9792172938
 C         0.0602010185        6.9487185302       -8.7106128202
 C        -0.6433833228        6.4591937637      -10.0305307950
 O        -0.0944333668        6.6512677101      -11.1336874424
 C        -1.8947473201        5.5821955241       -9.8911131166
 C        -1.5201806331        4.1291533917      -10.5674534211
 O        -1.4541226368        4.0526424897      -11.8207651153
 C        -0.8688170702        2.9741069070       -9.6926207704
 C        -1.3965387957        1.5883256817      -10.3537705143
 C        -2.9896516241        1.6661863677      -10.2081865470
 O        -3.5478929895        2.7632364579       -9.9881344324
 C        -3.9124482782        0.3796318230      -10.2840074537
 C        -3.5607423009       -0.5478126760       -9.0383515789
 O        -2.4211951628       -0.9840343286       -8.9601820081
 C        -4.5393426338       -0.5307248707       -7.8619435544
 C        -3.8601276898       -1.0234612344       -6.5811027306
 C        -3.5374620184       -2.5441586222       -6.4812782705
 O        -4.3866598745       -3.3643191350       -6.5978199334
 C        -2.1068419685       -3.0024516593       -5.9452874602
 C        -1.4170439741       -3.8202865295       -7.1415388590
 O        -1.9760009651       -4.8616857400       -7.5717740948
 C        -0.2085083819       -3.2505805517       -7.8768163917
 C         0.5184693416       -4.2684938097       -8.7579192090
 C         0.9444934575       -5.4935840551       -7.8738484235
 O         1.0003402347       -5.3455089063       -6.6882285777
 C         1.4603455413       -6.8547174874       -8.4889079096
 C         0.3161842443       -7.6180208094       -9.0712534075
 O        -0.2792335069       -7.2584547781      -10.0814844822
 C        -0.2432289113       -8.6940947427       -8.1458967113
 C        -1.5198909337       -9.3865817243       -8.8852668669
 C        -2.7787836912       -8.5416089539       -8.7317101241
 O        -2.9018221782       -7.8177761984       -7.7701962191
 C        -3.8658903791       -8.5323935014      -10.0520136658
 C        -5.1001277438       -7.6482552382       -9.5440692881
 O        -5.1374274332       -6.3871350443       -9.4980557554
 C        -6.3926716901       -8.4028007839       -9.1521493807
 C        -7.2083060385       -7.6413778382       -8.0998348042
 C        -6.7174443365       -8.0220961806       -6.7104892205
 O        -5.6896183407       -7.4707039960       -6.2995173100
 C        -7.4440580127       -9.0601436671       -5.7873653281
 C        -7.3230849017      -10.4439780192       -6.6177234010
 O        -6.3119877295      -10.7063623452       -7.1602434790
 C        -8.5112184768      -11.4052112318       -6.3705779449
 C        -8.7931025275      -12.1076019696       -7.7345760046
 C        -9.0647769338      -11.0664408119       -8.8982733074
 O        -8.2451419854      -10.3475286567       -9.4117127302
 C       -10.6117809505      -10.9886379771       -9.3226582075
 C       -11.1344634318       -9.7536153807       -8.4296824471
 O       -10.3983867497       -8.8526655100       -8.1569116777
 C       -12.6359217772       -9.5978201120       -8.3379451312
 C       -12.9751653930       -8.9054066650       -6.9914760974
 C       -14.4608840953       -9.0409509471       -6.6053979557
 O       -15.1345302261       -9.9461726238       -6.9977693113
 C       -15.0281377229       -8.0367094711       -5.6036881402
 C       -13.8391182656       -7.5755839302       -4.5469666698
 O       -13.1717474224       -6.5868609324       -4.8329761888
 C       -13.4544118006       -8.4421492679       -3.4186407834
 C       -15.4729383576       -6.7272283447       -6.3795190488
 C       -16.2673766727       -8.7226939902       -4.9860568026
 C       -10.6420566600      -10.5590934276      -10.7952395625
 C       -11.2734033022      -12.3243470729       -9.1131278980
 C        -6.6014623551       -9.1418340037       -4.4688023914
 C        -8.8675624816       -8.5742272200       -5.3532753034
 C        -3.0589020733       -7.6641479442      -11.1188703269
 C        -4.1343483795       -9.9040324636      -10.6524975310
 C         2.4751246880       -6.4575376484       -9.6869231359
 C         2.2236666709       -7.5820638360       -7.3639314869
 C        -1.2743674084       -1.7637212561       -5.4846349310
 C        -2.3054470282       -3.7389309176       -4.7009246106
 C        -5.3774028911        0.9703686504      -10.3160096545
 C        -3.7056613247       -0.4400723948      -11.5897000682
 C        -2.3064163492        5.4044741217       -8.4630498238
 C        -3.0873518418        6.3084098653      -10.6552917350
 C         4.8794355825        5.8622515072       -9.8300678361
 C         4.1827341586        8.2847530231       -9.6931339072
 C         5.1451284487        1.3623685578      -14.2926332617
 C         5.3537907806        3.6226927735      -15.6427812534
 C        -2.6432506746        2.8869980108      -15.2589330300
 C        -1.4945853171        2.9245250421      -17.5642346693
 C        -1.8008396984       10.0243277384      -16.3625986826
 C         0.3285669055        9.6540959481      -14.8586348462
 H        -3.2985495752       10.6527634750      -13.6635298245
 H        -1.6385533957       11.1462846807      -13.7793303888
 H        -2.3383178587       10.3163079724      -12.2788867778
 H        -0.5636051452        7.7822124316      -17.9791757718
 H        -2.2921333540        7.6139152003      -17.4993758270
 H        -0.0950674265        5.5865478585      -17.4161401090
 H        -1.6674122111        5.4841570646      -18.2954806605
 H         0.7860649120        2.0489021479      -16.5852698446
 H        -0.0620560003        1.2478643838      -15.2871037010
 H         2.1770039041        0.8356702134      -14.6099828354
 H         2.0372969773        2.3370852077      -13.7945994372
 H         2.5200956461        4.8764061633      -14.2727958459
 H         4.1286394551        5.5945130857      -14.0808878622
 H         3.4127805995        4.6609022413      -11.5253837935
 H         1.9360175153        5.2898872682      -12.2173164097
 H         1.3756857545        8.4137595995       -9.7307308705
 H         1.9637469280        8.0882446855       -8.1344875790
 H        -0.5173236286        7.6292068662       -8.1418455809
 H         0.2591790708        6.0475483091       -7.9952637309
 H        -1.2339765788        2.9981903615       -8.6275480110
 H         0.2396785344        3.1109856050       -9.8018621572
 H        -1.0701582318        0.6513898903       -9.7879627755
 H        -1.1692745296        1.4753456888      -11.4042893568
 H        -5.5151324541       -0.9629744254       -7.9222946053
 H        -4.6627935823        0.5938842843       -7.6091773847
 H        -4.5800699270       -0.8228920284       -5.7734838354
 H        -3.0798930441       -0.3049188856       -6.4205855481
 H         0.5776889959       -2.9375475493       -7.1148344420
 H        -0.5463467276       -2.3237127617       -8.3857893608
 H         1.4676380586       -3.8954269119       -9.0555200715
 H        -0.1849522140       -4.7680733951       -9.5031465730
 H        -0.5611536023       -8.2918746657       -7.1863939551
 H         0.5783121014       -9.4687636179       -7.8531749752
 H        -1.7600791169      -10.3835398316       -8.3750000020
 H        -1.3518386499       -9.6266185169       -9.9932203887
 H        -6.2051853645       -9.4427080163       -8.7141643441
 H        -6.8266154500       -8.5960656783      -10.1589920650
 H        -8.2936715330       -7.8488673772       -8.1117199993
 H        -6.9862973529       -6.5114726354       -8.2260634355
 H        -9.3848015828      -10.8693628394       -6.0997341159
 H        -8.2271732963      -12.0775174295       -5.6101880077
 H        -9.5884476434      -12.8727750581       -7.6405619110
 H        -7.8654106992      -12.6895716914       -7.9792992174
 H       -13.1603508398      -10.5053616784       -8.5359286166
 H       -12.9703835158       -8.9412109059       -9.1575329470
 H       -12.7783993721       -7.7966700742       -6.9998124425
 H       -12.4205791080       -9.4702178123       -6.1931802206
 H       -14.1774588935       -8.2554649444       -2.5837949848
 H       -12.5691490785       -8.0334738113       -3.0261249906
 H       -13.5305591597       -9.5411983827       -3.5713277452
 H       -14.6598566170       -6.2006875293       -6.8377420564
 H       -15.9614810683       -6.0139349993       -5.6900451598
 H       -16.2669188035       -6.8357515298       -7.1333558218
 H       -16.8779437465       -8.0431417609       -4.4675463288
 H       -16.0378710694       -9.5301530107       -4.2262870429
 H       -16.9219026826       -9.1930140943       -5.7712491165
 H       -11.0835475718       -9.6310818598      -10.8637297871
 H       -11.3583294523      -11.1622581080      -11.4050693928
 H        -9.6701435973      -10.5261604147      -11.3123550033
 H       -11.3135280827      -12.7916847223       -8.1653885654
 H       -10.7567060245      -13.1680976930       -9.6413849850
 H       -12.2183188485      -12.2445786822       -9.6744169033
 H        -5.5659770713       -9.3881359835       -4.7216241854
 H        -6.9113620205       -9.9456049025       -3.8482442961
 H        -6.6579532167       -8.2145984709       -3.9004853013
 H        -8.8083761880       -7.5627960163       -4.9834209962
 H        -9.3997691655       -9.1518961523       -4.6174413097
 H        -9.5813442719       -8.4289961866       -6.1743978524
 H        -2.0515437112       -8.0840522106      -11.0986694834
 H        -3.0274649484       -6.7051855330      -10.6486037932
 H        -3.4580207478       -7.6195102025      -12.1759156046
 H        -3.1211712017      -10.3607142184      -10.9572836550
 H        -4.7040891650       -9.8760497284      -11.5278341543
 H        -4.4706182900      -10.7253186481       -9.9966550148
 H         3.2382230961       -5.7135429109       -9.4131732611
 H         1.8533326282       -5.9200787637      -10.4549065076
 H         2.8190698830       -7.4364329176      -10.0941652582
 H         1.7145667126       -7.7955950775       -6.4499188334
 H         3.0681405642       -7.0001789367       -7.1213538820
 H         2.5995457780       -8.4989568753       -7.7477128210
 H        -0.3151446936       -2.1454285351       -5.0661556838
 H        -1.7319582316       -1.2445176309       -4.6621690074
 H        -0.9680446247       -1.1064534306       -6.2805608282
 H        -2.2236034662       -4.8525117109       -4.8304812737
 H        -3.2574283234       -3.4561345318       -4.1516705814
 H        -1.4650248033       -3.6348452215       -3.9544092886
 H        -5.6547347613        1.2863391953       -9.3515318535
 H        -6.1363488478        0.3142275325      -10.7221788497
 H        -5.4064977092        1.7430475074      -11.0113248921
 H        -2.7423443047       -0.9495221186      -11.6212885559
 H        -3.8038449565        0.1944311848      -12.4973367767
 H        -4.4619929700       -1.2341093000      -11.7511674687
 H        -1.6604942690        4.7321205656       -7.9038977081
 H        -3.2983817718        4.9767613191       -8.3278315050
 H        -2.1713171134        6.2720991014       -7.8423328678
 H        -3.9098277109        5.6399793818      -10.4980769296
 H        -2.9431848206        6.6019982066      -11.6686791278
 H        -3.3863023485        7.2076950853      -10.0977058754
 H         4.4429319358        4.9624733810       -9.4484908511
 H         5.6069207999        6.3183003053       -9.1150993334
 H         5.3663459722        5.4646709909      -10.7771470158
 H         5.0396708976        8.6651893717      -10.2996537692
 H         4.5541268152        8.1566738356       -8.7452813758
 H         3.3380490739        8.9682346933       -9.7938372063
 H         5.4612976545        1.3269990935      -13.2239401656
 H         6.0284257920        1.0990567256      -14.9233701639
 H         4.4419194183        0.5265217596      -14.4319781292
 H         4.6488616498        4.4259885602      -15.9272138346
 H         5.6969784957        3.0656475929      -16.5281811804
 H         6.1801933511        4.2365130308      -15.1594921643
 H        -2.7307720604        3.5890306692      -14.4406900793
 H        -2.3541873540        1.9614081747      -14.8533881719
 H        -3.5847877960        2.7182241024      -15.7815696147
 H        -1.8042891902        1.8513587592      -17.7218338785
 H        -0.5940958521        3.1272137115      -18.0756325510
 H        -2.2078758648        3.3726985651      -18.2310348703
 H        -2.8067640391        9.6558243625      -16.5530882167
 H        -1.2747019769       10.0523666983      -17.3005063433
 H        -1.9168302129       10.9960117224      -15.9162307164
 H         0.7257198928        9.2602820117      -13.9343585935
 H         0.4215983914       10.7348455341      -14.6850211221
 H         1.0979804672        9.4804362013      -15.6180596731
 Na       -0.9363685823        5.9086473963      -13.1935688942
 Na       -4.1789436551       -5.8080837396       -7.2021896245
