232

 C        -2.1974764744       10.3631572671      -13.2149159112
 C        -1.9463407805        9.0657933436      -13.9191571887
 O        -2.2247718388        7.9642850573      -13.4982105443
 C        -1.1651073219        9.0956118174      -15.2903193682
 C        -0.7826016839        7.6632762018      -15.9155137219
 O         0.1009284147        7.0372608743      -15.3720835691
 C        -1.2552930170        7.2789393318      -17.3715561799
 C        -1.1822390239        5.8373236116      -17.5213955604
 C        -1.6921522148        5.1170829207      -16.2442355033
 O        -2.1724228525        5.6741204913      -15.2871289559
 C        -1.4561075676        3.5870271126      -16.0754350345
 C        -0.1514292550        3.4209395548      -15.2971772970
 O         0.2031301265        4.2590843140      -14.4463991751
 C         0.6433724674        2.1135463590      -15.5701025218
 C         1.8749554161        1.9056947290      -14.7286993619
 C         3.1307753378        2.3620665277      -15.5826707435
 O         2.9388331758        2.5090169465      -16.7379830136
 C         4.4191995661        2.7767165823      -14.8538876727
 C         4.0344936220        3.5539500034      -13.4839127908
 O         4.1467094440        2.9403593016      -12.4197413224
 C         3.4203606601        4.9515307265      -13.5293746187
 C         2.8593606500        5.4415255310      -12.2010089104
 C         3.5931905230        6.6966076765      -11.6791690737
 O         3.7605631110        7.6216468448      -12.4250585426
 C         3.6971622671        6.9032658612      -10.0649273635
 C         2.3274443097        6.5204523925       -9.5907747569
 O         1.9580034101        5.3126881072       -9.4989619153
 C         1.4281215643        7.7187521419       -9.0755818277
 C         0.0297383005        7.1657294570       -8.7394359931
 C        -0.5239268449        6.5516658923       -9.9373106853
 O        -0.0356533661        6.7311698029      -11.0612542691
 C        -1.8319595219        5.5660033384       -9.8101353037
 C        -1.4474627240        4.2904484973      -10.6277031042
 O        -1.6077699694        4.2019144574      -11.8438242014
 C        -0.9297964712        3.1065117486       -9.8338181299
 C        -1.4536506190        1.6980146090      -10.2397082902
 C        -2.9807637411        1.6441472150      -10.1884161739
 O        -3.5147157823        2.7468325807      -10.0786957877
 C        -3.8589522160        0.3955267042      -10.3895517611
 C        -3.6581624095       -0.4080946743       -8.9863264375
 O        -2.5208401799       -0.9165146954       -8.9852025084
 C        -4.5789196559       -0.4523234909       -7.8340942102
 C        -3.9860098259       -1.0857008694       -6.5076751631
 C        -3.5846531747       -2.6310083639       -6.4045230087
 O        -4.4351042162       -3.5163255851       -6.6550672621
 C        -2.1311516262       -2.9799174923       -5.9224268059
 C        -1.5024213535       -3.8404414672       -7.1599843750
 O        -2.0047814092       -4.8540902201       -7.5452770185
 C        -0.1529544488       -3.3791614634       -7.7891762571
 C         0.4867947061       -4.3655314527       -8.7202998439
 C         1.0498918865       -5.5339936701       -7.8352579089
 O         0.8840884338       -5.4868013660       -6.6314744609
 C         1.6046879289       -6.8536169254       -8.5176731415
 C         0.2293830854       -7.6531018589       -9.0466686289
 O        -0.3053214086       -7.3243473414      -10.0813724119
 C        -0.4076577438       -8.7552631390       -8.1902717396
 C        -1.5707704096       -9.4025327442       -8.9423744277
 C        -2.8009257199       -8.4613116412       -8.7693256531
 O        -2.9634245161       -7.7815644338       -7.8025663317
 C        -3.8216505505       -8.4621347379       -9.9097369504
 C        -5.1478676941       -7.6315673682       -9.5716940802
 O        -5.0241410436       -6.4328544720       -9.4952804305
 C        -6.4602335786       -8.3225849324       -9.1317620955
 C        -7.2851299534       -7.5704168091       -8.0427756351
 C        -6.6336553096       -7.8528011178       -6.6585220718
 O        -5.6426391450       -7.3897283179       -6.2288493337
 C        -7.3535191623       -8.9521613605       -5.8244479931
 C        -7.2733850599      -10.3240565106       -6.5392662683
 O        -6.3462843531      -10.6540403668       -7.2772013392
 C        -8.4939018829      -11.2157625311       -6.4630432654
 C        -8.6363868576      -12.0546835955       -7.7409831910
 C        -9.0538662892      -11.0626979603       -8.8259705231
 O        -8.1273545574      -10.4342819731       -9.3474436249
 C       -10.5798566146      -10.9012977949       -9.2485671853
 C       -11.1814718976       -9.6976091396       -8.5162162506
 O       -10.4784621890       -8.7935649360       -8.1811685116
 C       -12.6731406433       -9.6368991568       -8.2391573060
 C       -12.9437762951       -8.9793933653       -6.8803626122
 C       -14.4229031105       -9.2060976577       -6.5502347971
 O       -15.0229622592      -10.2157422089       -6.8772582533
 C       -15.0409194493       -8.0385428113       -5.5198934938
 C       -13.8585946616       -7.5522055413       -4.6449631168
 O       -13.2295078690       -6.5450584392       -4.8999222054
 C       -13.4797110190       -8.4954043726       -3.4832242315
 C       -15.4733810676       -6.8657154252       -6.4312349854
 C       -16.2662545575       -8.6527197619       -4.7935569789
 C       -10.6411898464      -10.4799338692      -10.7680028411
 C       -11.3444824517      -12.1844457486       -9.0036317672
 C        -6.6148785251       -9.1421978360       -4.5013492230
 C        -8.7821543550       -8.5708265649       -5.6023972082
 C        -3.1733387258       -7.7045919679      -11.1848613269
 C        -4.1221513826       -9.8626992567      -10.2652031207
 C         2.4567093200       -6.4331045285       -9.7540005798
 C         2.3637729239       -7.7126416921       -7.5186642361
 C        -1.3345403134       -1.6790607480       -5.4410548628
 C        -2.2891313163       -3.9334932032       -4.6726962759
 C        -5.3532151663        0.8969013268      -10.5338392838
 C        -3.4268682385       -0.5119993379      -11.5526025356
 C        -2.3182785237        5.3932708818       -8.3944401295
 C        -2.9134104828        6.2833308785      -10.6111384589
 C         4.8894205279        5.8125345585       -9.7729019919
 C         4.2181846668        8.2586287875       -9.5829969540
 C         5.1105283827        1.4310232391      -14.4137683960
 C         5.4489676131        3.5938632395      -15.7064011981
 C        -2.5873556425        2.8082622261      -15.3036940828
 C        -1.4501853044        2.8143830428      -17.4773697724
 C        -1.6901213105       10.1562075875      -16.2986188303
 C         0.2731597526        9.5871135131      -14.9411533909
 H        -3.1902368266       10.7810225988      -13.5560972943
 H        -1.4956675175       11.1040811402      -13.5532933600
 H        -2.3444390256       10.2280377321      -12.1488801667
 H        -0.7949959441        7.7299011490      -18.2737706646
 H        -2.2888633648        7.4654924179      -17.4311301302
 H        -0.1225367387        5.5533758227      -17.5976331821
 H        -1.7582712485        5.5524208283      -18.4666578185
 H         0.9087529294        2.0867323921      -16.6134436877
 H        -0.0216926607        1.2174326331      -15.4903312441
 H         1.8699866732        0.8358704024      -14.5565056609
 H         1.8689472203        2.3277439196      -13.7307116149
 H         2.6040724388        4.8038070249      -14.2911850545
 H         4.1788338363        5.6178690922      -14.0168260466
 H         3.0679724561        4.6300936945      -11.5580754067
 H         1.8438798582        5.5665126183      -12.3390018396
 H         1.3309279842        8.5341000403       -9.8023818757
 H         2.0652550627        8.1177016520       -8.2311375290
 H        -0.5955059196        8.0372281050       -8.5713640618
 H         0.0416692886        6.5769512939       -7.8053121125
 H        -1.1238795406        3.3037943608       -8.7752072279
 H         0.2103117752        2.9944955291      -10.0747187032
 H        -1.0337319553        0.9068358469       -9.5627162865
 H        -1.1071703298        1.4995675977      -11.2635433222
 H        -5.4769360065       -1.1869734512       -8.0614357601
 H        -4.9392792719        0.4884367752       -7.5984138862
 H        -4.6698834542       -0.8442822685       -5.6404782339
 H        -3.1653867247       -0.4771269428       -6.3583644383
 H         0.5587542467       -2.9546105143       -7.0759310140
 H        -0.4242841598       -2.5364328571       -8.4787607215
 H         1.3952240074       -3.9406994248       -9.1026546469
 H        -0.3000685154       -4.7417296835       -9.3774822378
 H        -0.7382359948       -8.4325202480       -7.2370061977
 H         0.2733213944       -9.4936430476       -7.9828023798
 H        -1.7359966755      -10.4493812904       -8.4369045725
 H        -1.3759497925       -9.5503947208       -9.9761346246
 H        -6.3842518182       -9.3233890214       -8.7288822821
 H        -6.9222245038       -8.4668968164      -10.0782772853
 H        -8.2585060489       -8.0009731250       -7.9810915096
 H        -7.3085122839       -6.4857903515       -8.1411833702
 H        -9.4376348819      -10.6722905394       -6.3437233779
 H        -8.3701656355      -11.9489036539       -5.6686775576
 H        -9.3586519403      -12.8800396672       -7.4842399521
 H        -7.6646698969      -12.5413840354       -7.9333836164
 H       -13.1540883834      -10.6890217936       -8.1618051922
 H       -13.2916723503       -9.1690213024       -9.0217415236
 H       -12.9328525053       -7.9124185992       -6.7881605237
 H       -12.3685438107       -9.4993521344       -6.1304696492
 H       -14.2742531489       -8.4001561584       -2.7412764467
 H       -12.5906688915       -8.0955172580       -2.9224550911
 H       -13.4806327013       -9.5354806199       -3.6945056037
 H       -14.8669661514       -6.7934824177       -7.3049728424
 H       -15.3403786954       -5.9447162981       -5.9114828959
 H       -16.5272836201       -6.7774936281       -6.7492572141
 H       -16.8380649741       -8.0843462702       -4.0327275404
 H       -16.0434691564       -9.6475524557       -4.3214730753
 H       -16.9723389758       -8.8674793934       -5.5864189240
 H       -10.6325273350       -9.3597357672      -10.8446783064
 H       -11.6272991812      -10.6516863706      -11.2078040587
 H        -9.9018778321      -10.8719883437      -11.3915448312
 H       -11.6330826604      -12.5188412521       -8.0399520255
 H       -10.7515075243      -13.0369482911       -9.2498738161
 H       -12.0874250824      -12.1565704263       -9.8367057658
 H        -5.6454964446       -9.4734650679       -4.7598596359
 H        -6.9761590507       -9.9407673798       -3.9144158944
 H        -6.5058737040       -8.1994963150       -3.9464504638
 H        -8.8803775647       -7.5543340962       -5.3758147904
 H        -9.2425563003       -9.0889295496       -4.8257534816
 H        -9.4763093919       -8.6442365565       -6.4675589863
 H        -2.2309139075       -8.2513785176      -11.2867590783
 H        -3.0505016551       -6.6512705277      -11.0391697564
 H        -3.7788077854       -7.9253745831      -12.0427317214
 H        -3.2432639221      -10.4858946660      -10.4963791190
 H        -4.7146935305       -9.8786883729      -11.1849177892
 H        -4.6076900808      -10.4743424469       -9.5179944732
 H         3.0795706539       -5.5314394020       -9.4173151673
 H         1.8490361835       -6.0100045936      -10.5445360858
 H         3.0614654760       -7.3078063596      -10.0497205577
 H         1.6941754047       -8.0415184839       -6.7478752184
 H         3.1632768201       -7.2421133683       -7.0143895219
 H         2.7834567446       -8.6297907185       -8.0106741637
 H        -0.2743334054       -1.8766891273       -5.2822435496
 H        -1.6901593580       -1.4418680315       -4.4472376260
 H        -1.3660545823       -0.7577514527       -6.0730722910
 H        -2.0402904430       -4.9687985167       -4.9452033636
 H        -3.2585927498       -3.8583516081       -4.1635292284
 H        -1.5152198802       -3.8173811566       -3.9051564863
 H        -5.5642485362        1.3082527980       -9.5541939801
 H        -6.0807444021        0.0697641870      -10.7370731648
 H        -5.5361373638        1.6008912628      -11.3134525628
 H        -2.3974337028       -0.8809379552      -11.4460188221
 H        -3.4415154869        0.1243920529      -12.4122355662
 H        -4.0608156589       -1.3390113332      -11.8465263762
 H        -1.7032494158        5.0164003300       -7.6740312571
 H        -3.2017669026        4.7137756340       -8.3459195877
 H        -2.5216021380        6.3574111590       -7.9849691880
 H        -3.8088039459        5.9550030816      -10.2230073676
 H        -2.8218536141        6.0701952856      -11.6374958436
 H        -2.9214464923        7.3595186513      -10.4778138615
 H         4.7195043972        4.8397777100       -9.2918975631
 H         5.6497087575        6.3764297375       -9.2184292302
 H         5.2900277951        5.5639144390      -10.7978080752
 H         5.2236646195        8.4751615726       -9.9332665640
 H         4.2969139726        8.1508725687       -8.5313178407
 H         3.4928624836        9.0261228902       -9.9072963451
 H         5.4151202076        1.5255236779      -13.3419684191
 H         5.9353971847        1.1398685072      -15.0099631228
 H         4.4203363320        0.5960685089      -14.4304657098
 H         5.0751164975        4.6925397246      -15.7341192904
 H         5.4597823872        3.1167052002      -16.7280266715
 H         6.5222775401        3.7270976906      -15.2982626827
 H        -2.5190875291        2.9597838250      -14.2899817758
 H        -2.5994592080        1.7132610625      -15.4919461582
 H        -3.4835950181        3.1756536024      -15.7307478757
 H        -1.3390912605        1.7546819385      -17.4530808705
 H        -0.8296010474        3.2903166210      -18.3117792317
 H        -2.4427672665        2.8174087828      -17.9679913278
 H        -2.7489285107        9.9547774495      -16.4842481353
 H        -1.1437814824       10.0969676436      -17.2634547639
 H        -1.7252726801       11.1411348976      -15.8018308513
 H         0.7651369465        9.0914356036      -14.1541132726
 H         0.3830505274       10.6127039001      -14.7006846090
 H         0.9794193171        9.4919352148      -15.8171178124
 Na       -0.8916152911        5.9605532521      -13.3104056819
 Na       -4.3105238901       -5.9024572975       -7.1602983913
