232

 C        -2.1897904496       10.2939582213      -13.1740186470
 C        -1.7393998096        8.9844039158      -13.9500339768
 O        -2.2541804042        7.8834503701      -13.7119103337
 C        -0.8642412693        9.2096516446      -15.2641170534
 C        -0.5817004116        7.8455016948      -16.0511475854
 O         0.0979530383        7.0303722062      -15.4211893894
 C        -1.3225805895        7.4691410178      -17.3672137620
 C        -1.2582623571        5.8551672108      -17.7258306886
 C        -1.7806617738        5.0788253603      -16.4091825966
 O        -2.3557613402        5.5884365020      -15.4371703837
 C        -1.4683397150        3.4909748318      -16.2036238238
 C        -0.1068560635        3.2224054775      -15.3917380355
 O         0.2849750899        4.0445787700      -14.5668748501
 C         0.5836349419        1.8813971102      -15.4377407149
 C         1.9096475076        1.9312563662      -14.7081862643
 C         3.1220938559        2.3767101036      -15.6097123519
 O         3.0910756931        2.3860878056      -16.8182177938
 C         4.3999656009        2.7004425859      -14.7945889229
 C         4.1289982172        3.4678731739      -13.4132915953
 O         4.2933613299        2.9510020165      -12.3658442908
 C         3.5881627549        4.9385204270      -13.5565703298
 C         2.8908662592        5.3937703629      -12.2659947891
 C         3.4470261522        6.6813756169      -11.6753117240
 O         3.7990321699        7.6445675863      -12.2761228789
 C         3.7196177545        6.7318540269      -10.0024538982
 C         2.3268060827        6.5274779627       -9.3937871580
 O         1.8789288741        5.4427921975       -9.2091333672
 C         1.5656526114        7.8099090483       -9.0434055341
 C         0.0486975773        7.5104330549       -8.9134138480
 C        -0.5846495210        6.6375104712      -10.0878617278
 O        -0.1241674718        6.7410911421      -11.2217011912
 C        -1.8405683467        5.7419021711       -9.9046750371
 C        -1.4975428014        4.3709914828      -10.6495119088
 O        -1.5939845924        4.2736231672      -11.8782383877
 C        -0.8208094911        3.1604073283       -9.9375479148
 C        -1.5925851278        1.8235862171      -10.2375331408
 C        -3.1294579516        1.8550345393      -10.1424282802
 O        -3.6748130473        2.9597179479      -10.1597686788
 C        -3.7591900148        0.3999557412      -10.2493741661
 C        -3.5355147905       -0.4913130458       -8.9328114624
 O        -2.4484743125       -0.9288738124       -8.6498393170
 C        -4.7698471780       -0.7708931409       -7.9786059058
 C        -4.3058200624       -1.1520541933       -6.5731127356
 C        -3.7528589973       -2.6491718528       -6.4963808789
 O        -4.4852852177       -3.5058385462       -6.8785468978
 C        -2.2406026788       -3.0233581029       -5.9330599340
 C        -1.5756419709       -3.8830028857       -7.1151780086
 O        -2.1173105674       -4.8777954597       -7.6411081498
 C        -0.2935872583       -3.4207797953       -7.6630876467
 C         0.3656740360       -4.6091247513       -8.4709835835
 C         0.8619037716       -5.8263828304       -7.6887964815
 O         0.8398843985       -5.9340914129       -6.4983001399
 C         1.5853977053       -6.9594598742       -8.5493411890
 C         0.3354088839       -7.6525090730       -9.1235079579
 O        -0.2789765429       -7.2869787647      -10.1198516746
 C        -0.2469815697       -8.7596287210       -8.2697851895
 C        -1.5851400712       -9.3330848894       -8.8091918067
 C        -2.8155282822       -8.3395143814       -8.7122463216
 O        -2.9266053499       -7.5850937521       -7.7667074225
 C        -3.9117258514       -8.4620210574       -9.8460643987
 C        -5.0911676946       -7.4388111250       -9.4730382710
 O        -4.7916032952       -6.2476394284       -9.3196632899
 C        -6.5082585789       -7.9583283889       -9.2522529987
 C        -7.0639761509       -7.2782472558       -8.0139160708
 C        -6.5345166769       -7.7976010668       -6.6376915282
 O        -5.6952812145       -7.0800247827       -6.0329481134
 C        -7.3592099870       -8.8819837671       -5.8005298870
 C        -7.2620718648      -10.2665139492       -6.5678153957
 O        -6.2625630019      -10.4683256557       -7.1638095028
 C        -8.3602739620      -11.2829702285       -6.4374412811
 C        -8.6758842649      -12.0714104184       -7.8088581948
 C        -9.0073897288      -11.1149363783       -8.9118461447
 O        -8.1800425401      -10.6118097104       -9.6009199343
 C       -10.5142871791      -10.8720531345       -9.2388109485
 C       -11.1880110902       -9.6993859123       -8.4770707486
 O       -10.5650949640       -8.6528356914       -8.3208234321
 C       -12.6217597105       -9.7542930685       -8.0945721065
 C       -12.9898696419       -8.9740014510       -6.8842661528
 C       -14.4913993783       -9.3960935563       -6.2351149817
 O       -14.9549025731      -10.4951747533       -6.3454800062
 C       -15.0744328986       -8.1453542621       -5.4747971112
 C       -13.9125861440       -7.6520422996       -4.6531576954
 O       -13.3652242270       -6.5874218570       -4.8749577389
 C       -13.4807861701       -8.4561812255       -3.4614127007
 C       -15.5768054219       -7.1870455148       -6.6632362842
 C       -16.2674760237       -8.5644149268       -4.4995849012
 C       -10.5423173758      -10.5062355294      -10.7274539926
 C       -11.4091426334      -12.1591171523       -9.1106089859
 C        -6.6579397235       -9.0897213824       -4.4920448486
 C        -8.7216015722       -8.1766425102       -5.4963829602
 C        -3.4981460269       -8.0180743672      -11.2714962986
 C        -4.4059687443       -9.8533451438       -9.8780327901
 C         2.2923323395       -6.4301729868       -9.8513822755
 C         2.5029048348       -7.8788050524       -7.7104437730
 C        -1.3341022562       -1.8777120429       -5.4446507063
 C        -2.3948342456       -4.1224208355       -4.8748285598
 C        -5.1902035744        0.4865582561      -10.7581617441
 C        -2.9299701281       -0.4071432113      -11.3631462407
 C        -2.1618718953        5.3930703046       -8.3627381883
 C        -2.9733515369        6.5336411193      -10.5349931839
 C         4.6514697291        5.5653286573       -9.5758882763
 C         4.3720190114        8.1166481790       -9.8361948299
 C         5.0942157526        1.3268264066      -14.6233000691
 C         5.2686246670        3.6766262912      -15.8323989311
 C        -2.6002457676        3.0039380992      -15.1758973445
 C        -1.4152332695        2.8497919756      -17.6022271657
 C        -1.6860529340       10.1616010236      -16.2257675200
 C         0.4976084717        9.8792719016      -14.8781994821
 H        -2.9423420784       10.8167489369      -13.7081339493
 H        -1.3884194310       11.0309551448      -13.1205554958
 H        -2.6974486062       10.0608193861      -12.2571270708
 H        -0.8604115755        8.0228984549      -18.2111719816
 H        -2.3963263685        7.7831044720      -17.3348304529
 H        -0.2386480170        5.5132415975      -17.9767382976
 H        -1.9520357433        5.6316841266      -18.4918801600
 H         0.6228835617        1.6062322372      -16.5105271156
 H        -0.1340205921        1.1405159533      -15.1319264987
 H         2.0664230169        1.0047484266      -14.1046767665
 H         1.9086321196        2.7172624194      -13.9320120251
 H         3.0105238756        5.0911209685      -14.4417052429
 H         4.4984129108        5.4994124403      -13.6780751879
 H         2.7220175642        4.5095859991      -11.5743804482
 H         1.8685231720        5.7930449947      -12.6725235324
 H         1.8232013111        8.5580315760       -9.7959085149
 H         1.9375934295        8.1892338023       -8.1080894632
 H        -0.4303181424        8.4850824735       -8.7400502122
 H         0.1403014923        6.9560561633       -7.9551924501
 H        -0.7428852428        3.3789920640       -8.8791426913
 H         0.1264428947        3.0623057860      -10.3317143986
 H        -1.3053015739        0.9380017992       -9.7042676282
 H        -1.3497784524        1.6605761857      -11.2887246507
 H        -5.3881409063       -1.5196277516       -8.2092216190
 H        -5.3878395140        0.2004451536       -7.8362122766
 H        -5.1783234146       -1.2237149503       -5.9301153021
 H        -3.6782207000       -0.2595578605       -6.2223972742
 H         0.2474765838       -3.1418399022       -6.7560707966
 H        -0.2975027167       -2.5728238191       -8.3012277141
 H         1.2803332619       -4.3044110913       -8.9676458802
 H        -0.4581501346       -5.0232934255       -9.0462241639
 H        -0.3822610714       -8.2795101274       -7.2813522854
 H         0.4749413674       -9.6601674570       -8.0473623432
 H        -1.7575428597      -10.2313519943       -8.3399585751
 H        -1.4099815681       -9.4667800688       -9.8945885282
 H        -6.4608027267       -9.0310967613       -8.9888476781
 H        -7.2294664082       -7.9579642067      -10.1270206239
 H        -8.1451382872       -7.4542019167       -7.9782852050
 H        -6.7583295320       -6.2509371063       -7.8974812776
 H        -9.2990429643      -10.7536267428       -6.1927601849
 H        -8.1249517637      -12.0770696262       -5.6731098516
 H        -9.4422862363      -12.7544736135       -7.5817368453
 H        -7.8280367675      -12.6831170867       -8.0748264827
 H       -13.0418564679      -10.6954330695       -7.9939067403
 H       -13.1686749233       -9.2875117082       -8.9330944773
 H       -12.9176891829       -7.8778685800       -6.8338101173
 H       -12.3871919171       -9.3822797469       -6.0681228142
 H       -14.2977980842       -8.5381685901       -2.7281500178
 H       -12.6194798874       -8.1287799764       -2.9684785903
 H       -13.3639384121       -9.5367741423       -3.7860060470
 H       -15.8476675657       -7.8532882443       -7.4955688233
 H       -14.9525336525       -6.3425708405       -7.0388095530
 H       -16.5104379382       -6.7202908698       -6.4333365907
 H       -16.4524829691       -7.8513207050       -3.7413895323
 H       -16.0255286634       -9.4892545358       -4.0047519239
 H       -17.2424742350       -8.6513258179       -5.0168968439
 H        -9.6146736841      -10.4326530061      -11.1923768051
 H       -10.9582648655       -9.5448150784      -11.0464183010
 H       -11.0724434951      -11.3922183439      -11.2108658489
 H       -11.3071479093      -12.4649537094       -8.0595135126
 H       -10.9578644473      -13.0297199538       -9.6736194608
 H       -12.4215250604      -12.0108149390       -9.3734867393
 H        -5.6405528341       -9.5673374889       -4.5119000396
 H        -7.2427714201       -9.8204024226       -3.8960628956
 H        -6.5065962280       -8.1006284738       -4.0550355480
 H        -8.6208142215       -7.1534646979       -5.0713341983
 H        -9.3015776390       -8.7388271293       -4.7292715185
 H        -9.3762482226       -8.0332258072       -6.3303564521
 H        -2.7435675898       -8.6449300155      -11.7100365777
 H        -3.2362387411       -6.9678297014      -11.2260028217
 H        -4.4513739796       -8.1490480793      -11.8216450713
 H        -3.7003174019      -10.4407716850      -10.4766059059
 H        -5.3121631062      -10.0547379897      -10.3724007166
 H        -4.4696695150      -10.3396294130       -8.8957707164
 H         2.9707787613       -5.6594285175       -9.6880802974
 H         1.5200700199       -6.0041606263      -10.4870552901
 H         2.8184403887       -7.2689126996      -10.2491588515
 H         2.2067836098       -8.1649559270       -6.6593369895
 H         3.4487327189       -7.2722331014       -7.5641471159
 H         2.8394290673       -8.7469915692       -8.2583690039
 H        -0.5104033079       -2.2012797795       -4.7821711304
 H        -1.8751301762       -1.0718021528       -4.9176434757
 H        -0.9568504827       -1.3963472875       -6.3162038078
 H        -2.8301805860       -5.0216904291       -5.2071014294
 H        -2.9566944703       -3.6854003429       -4.1048968247
 H        -1.4621949208       -4.4709235310       -4.5156497740
 H        -5.7636451385        1.4027434006      -10.4329618457
 H        -5.7969003088       -0.4223656589      -10.6095291067
 H        -5.0401270799        0.5569942548      -11.8753643132
 H        -1.9554024058       -0.6540031276      -11.0075479013
 H        -2.8388831527        0.0542230244      -12.3635439038
 H        -3.4535720503       -1.3319663134      -11.5682963513
 H        -1.3835617537        5.2033737370       -7.5693980351
 H        -2.5593174346        4.4055395322       -8.4307227066
 H        -2.8804933002        6.0113789962       -7.8264371941
 H        -3.9382026673        6.2717570493      -10.0092649259
 H        -2.9988710209        6.2451161794      -11.6102562479
 H        -2.8429229647        7.6148990615      -10.4391107095
 H         4.0287305176        4.7206764613       -9.3582679961
 H         4.9930991041        5.8390092398       -8.5833376273
 H         5.4302254197        5.2651720163      -10.2475935368
 H         5.4348654152        7.9087557105      -10.0955610214
 H         4.3532525619        8.4740340584       -8.7967523327
 H         3.9752411930        8.7819652190      -10.5983847348
 H         6.0506242081        1.2958893563      -14.1601486587
 H         4.9927769070        0.7922963539      -15.6038736420
 H         4.4108050756        0.7934889548      -13.9748558588
 H         5.1848290412        4.6934660464      -15.6536128905
 H         5.0484755557        3.3865561863      -16.8204100542
 H         6.2901864932        3.4572260954      -15.7056535191
 H        -2.1163472428        2.9431565405      -14.1414926286
 H        -3.0103350811        2.0386624611      -15.3930158145
 H        -3.4376569162        3.7681961014      -15.2050557324
 H        -1.3247980399        1.7320868959      -17.6072569586
 H        -0.7710040918        3.3057725368      -18.2634773071
 H        -2.3376230151        2.8928068004      -18.1468470871
 H        -2.6804020040        9.7001246699      -16.4481003251
 H        -1.1264951453       10.2442664018      -17.1623358413
 H        -1.9747395713       11.1123170151      -15.7769776752
 H         1.1673018430        9.0391758783      -14.5892233445
 H         0.5172611369       10.5829781658      -14.0117064879
 H         1.0882255010       10.4164154297      -15.5549078830
 Na       -0.8019595834        6.1049756301      -13.4043689558
 Na       -4.1845629241       -5.6997933731       -7.3246342967
