232

 C        -2.1596563852       10.1637701689      -13.2663007065
 C        -1.7441188418        9.0280385639      -14.1006363263
 O        -2.0987740946        7.9251046781      -13.7640833097
 C        -0.8151841661        9.2045846797      -15.2883453664
 C        -0.5583623249        7.8154148002      -15.9946411462
 O         0.2184383226        7.0580965881      -15.4726240503
 C        -1.3338611849        7.4748860220      -17.2148553579
 C        -1.2457065243        5.9904414221      -17.4623590697
 C        -1.7323295068        5.1287166051      -16.3727167393
 O        -2.5165843271        5.5724910323      -15.5555961861
 C        -1.4178222094        3.5582297590      -16.2518065162
 C        -0.1358774072        3.2622782330      -15.4329632460
 O         0.1944271397        4.1161830430      -14.5859213141
 C         0.5997885888        1.8207425333      -15.3836868016
 C         1.9621616208        1.9157707982      -14.7307921251
 C         3.0896065963        2.3562982367      -15.6085899134
 O         3.0670085512        2.3599033941      -16.7920427068
 C         4.4483840830        2.6630967622      -14.8406948210
 C         4.2170948002        3.5227998996      -13.4741047715
 O         4.3157174614        2.9205181490      -12.3893992263
 C         3.7332695039        4.9388909285      -13.5503687537
 C         2.9645917382        5.3060494793      -12.2834759934
 C         3.5525904680        6.5457938778      -11.6700232849
 O         3.7351164545        7.5439086296      -12.2961566649
 C         3.7233792694        6.6377996094      -10.0777312721
 C         2.2870282637        6.6333630592       -9.4175886305
 O         1.8308852616        5.5512858414       -9.0278881784
 C         1.4431385217        7.8900141779       -9.0586871001
 C        -0.0275226442        7.4920504876       -8.9862241381
 C        -0.5563671395        6.7024534853      -10.1896792254
 O        -0.0797023271        6.8349702126      -11.3424181723
 C        -1.7843010711        5.7605018659       -9.9600861816
 C        -1.4180025232        4.4757040123      -10.7208361265
 O        -1.5558398088        4.3677710340      -11.9555708770
 C        -0.8959402503        3.3271612952       -9.9146674912
 C        -1.5200628008        1.9710665018      -10.2732057650
 C        -3.0456756297        1.8308072161      -10.0761775906
 O        -3.8457389871        2.7638138840      -10.1137595539
 C        -3.6589361722        0.2799726649      -10.2391490634
 C        -3.5438795275       -0.4365127422       -8.8674895262
 O        -2.4140608475       -0.8272135573       -8.5034571392
 C        -4.7185958688       -0.8861484902       -8.0742352204
 C        -4.2512498530       -1.1703070449       -6.5914527682
 C        -3.8101149639       -2.6372278108       -6.5553222527
 O        -4.5864596587       -3.4449438008       -6.9869081474
 C        -2.4190217353       -3.0346805154       -6.0719433977
 C        -1.6012653547       -3.9222363253       -7.2318217716
 O        -2.1597049759       -4.8699075842       -7.7868714855
 C        -0.1718503817       -3.6203797734       -7.5809404697
 C         0.4547087774       -4.6585125916       -8.4723496290
 C         1.0088290381       -5.8649199997       -7.6601001937
 O         0.7761587497       -6.1081219138       -6.5013640338
 C         1.5949338052       -6.9962684982       -8.6612482735
 C         0.2784532575       -7.7189552290       -9.1429390931
 O        -0.3026510099       -7.3132719384      -10.1329491958
 C        -0.3343293848       -8.8299566741       -8.2336317709
 C        -1.6464820879       -9.3581651294       -8.8689772403
 C        -2.6982010089       -8.2955687121       -8.7328402258
 O        -2.7703071480       -7.5886176497       -7.7858484852
 C        -3.9670150012       -8.4706801665       -9.7799431429
 C        -5.0220703189       -7.4380872568       -9.3520797270
 O        -4.7954975809       -6.2278056014       -9.3901799139
 C        -6.5299603909       -7.7586222853       -9.1701883853
 C        -7.1885938403       -7.0459057151       -7.9135719623
 C        -6.6363723439       -7.5259001336       -6.5267030364
 O        -5.6754113378       -7.0688849967       -5.9702610073
 C        -7.3636417651       -8.7318049367       -5.7617115904
 C        -7.2449764747      -10.1280630739       -6.6139822911
 O        -6.2122312793      -10.4203854327       -7.1393415441
 C        -8.3486218526      -11.2374389826       -6.3888882852
 C        -8.6645350191      -12.0026657466       -7.7391853777
 C        -8.9874107464      -11.1309227745       -8.9446777264
 O        -8.0646794495      -10.6826128597       -9.6485110073
 C       -10.5942869326      -10.9736165380       -9.3285155475
 C       -11.1998227458       -9.6253765243       -8.5135755188
 O       -10.4753257380       -8.7137680629       -8.3682924675
 C       -12.7263466575       -9.8200695979       -8.0643129651
 C       -13.1369384752       -9.0682711952       -6.8135010914
 C       -14.4293162456       -9.4388574369       -6.1308234300
 O       -14.8722899613      -10.5655950264       -6.0805654220
 C       -15.1303907163       -8.2463595462       -5.4272212094
 C       -13.9668648758       -7.4824851596       -4.5357278248
 O       -13.3382822022       -6.4913703268       -4.8630509482
 C       -13.4466463602       -8.4443390282       -3.3964355654
 C       -15.6414331761       -7.3645461599       -6.5646427202
 C       -16.3544869752       -8.6461503793       -4.5975911331
 C       -10.7312061589      -10.4969592658      -10.9141181347
 C       -11.3213481178      -12.2964590752       -9.2039914178
 C        -6.6487069514       -9.0331514892       -4.4249819427
 C        -8.6965284325       -8.1768728185       -5.4498494731
 C        -3.4925918108       -8.2099046470      -11.2900154523
 C        -4.5036191690       -9.9066706527       -9.7528546071
 C         2.3269144947       -6.2946817158       -9.8581470982
 C         2.4560004522       -7.8312203889       -7.7949712046
 C        -1.5677468362       -1.9420206991       -5.4667424432
 C        -2.6385305869       -4.0393380709       -4.8046106635
 C        -5.1259726642        0.3378813964      -10.7294149693
 C        -2.7369274910       -0.3849866905      -11.2396864967
 C        -2.0952554457        5.4768573209       -8.4263267328
 C        -3.0488799463        6.4813994523      -10.4215543940
 C         4.5125440081        5.4532335514       -9.5716224438
 C         4.5511044123        8.0038752562       -9.7785871646
 C         5.1157425266        1.3476228994      -14.6432504098
 C         5.2445397074        3.6799247636      -15.7902346700
 C        -2.5636880453        3.0067589640      -15.2930551009
 C        -1.5879648010        2.8460494938      -17.6036403506
 C        -1.6408523253       10.2078768657      -16.1971939758
 C         0.4934011948        9.9122808611      -14.8917342747
 H        -2.8427444810       10.8380597076      -13.8208727321
 H        -1.3238335356       10.7966764577      -13.1008830584
 H        -2.7358715744        9.8891210489      -12.4177379749
 H        -0.7290189386        7.9321907630      -18.1371703413
 H        -2.3113519330        7.8336468865      -17.2889734344
 H        -0.2999045415        5.6983529930      -17.8440075029
 H        -2.0235087180        5.8079751711      -18.1827999170
 H         0.5167784976        1.3235286396      -16.3776320886
 H        -0.1414893935        1.1827671535      -14.8550384602
 H         2.2738684555        0.8632489653      -14.5080223790
 H         1.9753818444        2.3855293655      -13.7620003337
 H         3.1845638873        4.9932837792      -14.4566499770
 H         4.6137621949        5.5766932503      -13.6655887043
 H         3.0163903039        4.3961779316      -11.6112440959
 H         1.8822595314        5.5813000917      -12.5125598771
 H         1.5789949885        8.6346622412       -9.8286167534
 H         1.7506809114        8.2975707672       -8.1082167266
 H        -0.5020539510        8.4347547929       -9.0574529016
 H        -0.1098644240        7.0381432230       -7.9257246204
 H        -0.9831327059        3.4884953171       -8.8643495860
 H         0.2182351359        3.3342534353      -10.1100702953
 H        -1.1680425275        1.0883019692       -9.6529623844
 H        -1.3159083192        1.7454816457      -11.2842523819
 H        -5.1517682732       -1.8599266154       -8.4480046879
 H        -5.5121004069       -0.1182704259       -8.0421330250
 H        -5.1141256969       -1.1838237880       -5.8535659814
 H        -3.5968476374       -0.4111302005       -6.3732921709
 H         0.4667689760       -3.3934300607       -6.6757600408
 H        -0.0695258052       -2.7292839982       -8.1954085401
 H         1.3066664429       -4.1994336930       -8.9073494874
 H        -0.3471613316       -5.1515606650       -9.1327370668
 H        -0.4330950644       -8.4835858542       -7.1330931781
 H         0.4157657751       -9.7160982766       -8.2104519308
 H        -2.0915444142      -10.1614360734       -8.1374037882
 H        -1.4430344054       -9.7410175653       -9.8765536765
 H        -6.8205120281       -8.8834444264       -9.2464706351
 H        -7.2018426406       -7.3058925457       -9.9425606542
 H        -8.2554499788       -7.2802161797       -8.0082772876
 H        -6.8952334290       -5.9190494208       -7.9133793113
 H        -9.2648183795      -10.8554269805       -5.9769694756
 H        -7.8891400797      -11.9297485539       -5.7210733377
 H        -9.3676696669      -12.8164690933       -7.5839859700
 H        -7.7243085295      -12.5004000248       -7.9793509092
 H       -12.8820113436      -10.8738511254       -7.9718694014
 H       -13.4286790831       -9.4909495383       -8.7898304876
 H       -13.3678781732       -7.9841554233       -6.9912459256
 H       -12.3782418072       -9.0594112377       -5.9579521665
 H       -14.1824588027       -8.3945757381       -2.5709177482
 H       -12.4875294132       -8.1194220801       -2.9706049243
 H       -13.3809574902       -9.5144790427       -3.6106566465
 H       -16.3774619562       -7.8716165026       -7.1668073101
 H       -14.8365380921       -6.9726524361       -7.2207206171
 H       -16.1784958636       -6.4202703943       -6.2155891872
 H       -16.6060771679       -7.7778305516       -4.0783677173
 H       -16.1558334052       -9.4618642820       -3.8655250461
 H       -17.2424684772       -8.8331550544       -5.1843851857
 H        -9.9527837175      -10.9323863157      -11.5324899458
 H       -10.4291293045       -9.4234137882      -11.0263885948
 H       -11.6273023788      -10.7737169801      -11.4394289742
 H       -11.3619377783      -12.7551501103       -8.2068347529
 H       -10.8019524686      -13.0205667867       -9.8908640649
 H       -12.4025160812      -12.1289072306       -9.5822158449
 H        -5.6766121146       -9.5515532538       -4.5601604448
 H        -7.2372712045       -9.8131725333       -3.9750285117
 H        -6.3967089498       -8.1241755970       -3.8022971285
 H        -8.5739981134       -7.2374624397       -4.8992891308
 H        -9.2816237337       -8.7868839977       -4.7552983485
 H        -9.4037492477       -7.8615254269       -6.3133481136
 H        -2.7263086459       -8.9953028576      -11.5151951464
 H        -3.0570628941       -7.2333545489      -11.2555977095
 H        -4.3616216296       -8.3211190063      -12.0065322119
 H        -3.6495628740      -10.5005680129      -10.2369262502
 H        -5.2831629925      -10.1051581829      -10.4256439005
 H        -4.8227113065      -10.3914752667       -8.8286732779
 H         3.1873916598       -5.6789571312       -9.5479575560
 H         1.6103628683       -5.6808436396      -10.3137241079
 H         2.7603057393       -7.0466625830      -10.4849288676
 H         2.1129052788       -7.9121055538       -6.7662911174
 H         3.4164185070       -7.3780795738       -7.7209092981
 H         2.6575173095       -8.8458945545       -8.1990806218
 H        -0.8092447384       -2.4258029986       -4.8278048440
 H        -2.1048536565       -1.2429167846       -4.8791707543
 H        -1.0809584204       -1.3419847576       -6.2282527296
 H        -3.5466259946       -4.6660758052       -4.6996200713
 H        -2.6326348231       -3.3069087549       -3.9964101062
 H        -1.8125704461       -4.7519211723       -4.7224683754
 H        -5.6053250629        1.1957758029      -10.2724997919
 H        -5.6504059943       -0.5910616788      -10.3696197737
 H        -5.2453545346        0.4390360707      -11.7770291020
 H        -1.7300025048       -0.6239056415      -10.8903531496
 H        -2.6560990783        0.1306670798      -12.2041349063
 H        -3.2653230699       -1.3165538778      -11.5128504593
 H        -1.2987220001        5.0598425662       -7.8448397937
 H        -2.8900302124        4.6611951864       -8.2908186201
 H        -2.3917712993        6.3752030608       -7.8507986510
 H        -3.9338919701        5.9373513824      -10.0993392418
 H        -2.9937070915        6.5243858754      -11.5356664869
 H        -3.0977208373        7.5548997506       -9.9632143512
 H         4.0365897083        4.5552479655       -9.8014914502
 H         4.5184380858        5.4174952459       -8.5037622590
 H         5.5454527347        5.4395508102      -10.0338595991
 H         5.5237068630        7.7459563178      -10.2831356614
 H         4.7461367383        8.0485726743       -8.7817831628
 H         4.1339098270        8.9219691254      -10.2630729769
 H         6.2521318502        1.3446955517      -14.6499407187
 H         4.6444593972        0.6081656616      -15.2964363653
 H         4.8413827528        1.0551692883      -13.6037219855
 H         4.8309961765        4.6247944392      -15.6155609535
 H         5.2071346461        3.4485660834      -16.7714228021
 H         6.2621557970        3.7105348920      -15.4688353413
 H        -2.2643265459        3.0089025817      -14.2651377612
 H        -2.5553005112        1.9128016282      -15.5740301056
 H        -3.5913483098        3.4299248909      -15.4813919236
 H        -1.9807142950        1.8482353878      -17.5630665680
 H        -0.7673217550        2.8893813560      -18.2808283386
 H        -2.3234625863        3.3334181871      -18.1829027735
 H        -2.6217925271        9.8593537818      -16.3677193843
 H        -1.1433665748       10.4081030847      -17.1355381978
 H        -1.8037116593       11.1498104304      -15.6707375831
 H         1.3198246592        9.2371181731      -14.7277201727
 H         0.4641993996       10.6180704325      -14.0706723120
 H         0.9597658816       10.5914223910      -15.6920765791
 Na       -0.7900507704        5.9931787205      -13.4736866520
 Na       -4.1324288325       -5.5833344306       -7.3343109087
