232

 C        -2.2237790800       10.1865391752      -13.2560065819
 C        -1.7087335282        8.9705100253      -14.0299919286
 O        -1.9929893024        7.8541476010      -13.7111858567
 C        -0.7621634493        9.3115240740      -15.3557714352
 C        -0.4720779037        7.8679129869      -15.9505232895
 O         0.3377833166        7.1342338419      -15.4435940154
 C        -1.2843902412        7.4492013689      -17.1669321999
 C        -1.1703389668        5.9557479745      -17.4846242097
 C        -1.8602280202        5.1158805142      -16.2479805518
 O        -2.6032605268        5.6894800415      -15.5303261135
 C        -1.5017951037        3.4865872285      -16.2388123662
 C        -0.1732597824        3.3570123626      -15.3858069541
 O         0.2562517134        4.1447525422      -14.5876836651
 C         0.5295457480        1.9521535640      -15.4341763973
 C         1.8714658449        1.8034765239      -14.6832621915
 C         3.0653639806        2.3940908680      -15.5759571695
 O         2.9530204720        2.3809134720      -16.7942675220
 C         4.4887994743        2.7593352815      -14.8697153999
 C         4.1866848397        3.4441160809      -13.5718574438
 O         4.3787242942        2.8175478797      -12.5259329987
 C         3.8079018029        4.8891887147      -13.5398655911
 C         2.9807156720        5.2528666713      -12.2485825656
 C         3.4197107036        6.6028825687      -11.5947058509
 O         3.7412031169        7.4923708018      -12.4260955947
 C         3.7493051028        6.5493862456      -10.0399518916
 C         2.3350986313        6.7011412598       -9.2907394458
 O         1.8007789942        5.6133805881       -8.9661326639
 C         1.4585009243        8.0083517395       -9.2517993136
 C        -0.0658106023        7.6230208856       -9.0693495046
 C        -0.5351856528        6.8706630274      -10.2189633860
 O        -0.0488449964        6.9381460317      -11.3410014913
 C        -1.7958646962        5.8357817585       -9.9452988332
 C        -1.4980699253        4.4604870077      -10.7730189525
 O        -1.5070239575        4.4752214403      -11.9632909344
 C        -0.9830866332        3.2938495238       -9.8873058090
 C        -1.4889000573        1.9689143916      -10.2771811837
 C        -3.0398785110        1.7956683396      -10.1902168330
 O        -3.8837669632        2.5768178002       -9.9482128189
 C        -3.5568686465        0.1909305604      -10.2742078765
 C        -3.4237272323       -0.4554692531       -8.8324072732
 O        -2.2966065727       -0.6560922550       -8.3756497862
 C        -4.6828101220       -0.8019743629       -8.1257617702
 C        -4.2600600342       -1.1912841786       -6.6349973791
 C        -3.8317127402       -2.6365125272       -6.6764737721
 O        -4.7444587897       -3.4289508553       -7.0709212191
 C        -2.4166634487       -3.1634121178       -6.0602893996
 C        -1.6668924787       -3.9363585116       -7.1623323935
 O        -2.1844418271       -4.7250354881       -7.8967732906
 C        -0.1395775033       -3.5946960934       -7.3426488655
 C         0.5366799629       -4.5071572744       -8.4261373436
 C         0.9348488128       -5.9312636719       -7.7608094604
 O         0.7609737452       -6.1763561040       -6.5820948881
 C         1.5819382210       -7.0031266107       -8.6873770311
 C         0.2327330014       -7.7913208334       -9.1523488046
 O        -0.3269835031       -7.3633102323      -10.1392352207
 C        -0.3100705822       -8.8867600000       -8.3076487890
 C        -1.6481829102       -9.4578197443       -8.9077576297
 C        -2.8232523293       -8.4521958449       -8.6886094723
 O        -2.6815981247       -7.5174494330       -7.8958128540
 C        -4.0100634609       -8.4802895462       -9.7353666027
 C        -5.1041230773       -7.3217222589       -9.4180936726
 O        -4.6895879929       -6.1950835455       -9.4615192159
 C        -6.5958475720       -7.6540180790       -9.0019421844
 C        -7.2178757926       -6.8960828721       -7.7563824315
 C        -6.5521065328       -7.4721616310       -6.5226646534
 O        -5.5654589278       -6.9140898655       -6.0826168676
 C        -7.3784485453       -8.6429580110       -5.7141802477
 C        -7.2723926726       -9.9850682906       -6.5206607597
 O        -6.2104303670      -10.2840715807       -7.1365539542
 C        -8.3693091385      -11.0226828449       -6.4376185549
 C        -8.6109515507      -11.8901426198       -7.6414991180
 C        -9.0895064198      -11.1545929936       -9.0070236869
 O        -8.1751483906      -10.6877789581       -9.6827552971
 C       -10.5652245053      -11.0061277624       -9.4941612045
 C       -11.1616614805       -9.8874933751       -8.5761074857
 O       -10.5945093669       -8.8383420023       -8.3131578135
 C       -12.6445512209       -9.9936821159       -8.1016265087
 C       -12.9599395151       -9.0502962933       -6.8471649587
 C       -14.3772799919       -9.4889374925       -6.0228925283
 O       -14.7433054829      -10.6080299454       -5.8527089328
 C       -15.1753425305       -8.2266856788       -5.3548760142
 C       -14.0115841350       -7.5655604856       -4.5218401083
 O       -13.5338366599       -6.5130633134       -4.8622717280
 C       -13.4903875951       -8.3278126389       -3.3084850911
 C       -15.6816742053       -7.2881881240       -6.4700521569
 C       -16.3330726116       -8.7474007545       -4.5652404036
 C       -10.7716687528      -10.4397480818      -10.9341265004
 C       -11.2140267160      -12.3168369686       -9.3129934737
 C        -6.5698142540       -8.9827459604       -4.4076939764
 C        -8.8841079359       -8.2728098786       -5.4533315523
 C        -3.4609393657       -8.2541985075      -11.1589642524
 C        -4.5527100938       -9.9937323012       -9.5902081634
 C         2.3532156643       -6.3488415735       -9.8226445334
 C         2.5648116720       -7.9386531366       -7.8869192403
 C        -1.6800501275       -1.9274273820       -5.6151636279
 C        -2.8843521577       -4.0829404701       -4.8280933102
 C        -5.0231702467        0.2610403444      -10.6880494718
 C        -2.6268611621       -0.5246485950      -11.2086785933
 C        -2.0011036242        5.6433596974       -8.4776722736
 C        -3.1774332958        6.4727155680      -10.5189241851
 C         4.4378501440        5.3169659861       -9.5424197507
 C         4.6040335391        7.8242604407       -9.6578238384
 C         5.2397434256        1.3950066832      -14.5990422299
 C         5.3930856227        3.6334910994      -15.8039497116
 C        -2.5948071426        2.8514637691      -15.3809613844
 C        -1.6262222910        2.8876999993      -17.6434904294
 C        -1.5605669995       10.3160090839      -16.3262966892
 C         0.5477869617        9.9166934443      -14.9523659434
 H        -2.8290006097       10.8439300222      -13.9122144326
 H        -1.4134889778       10.8484536753      -12.9698774733
 H        -2.9119882850        9.9691186256      -12.4290619919
 H        -1.1254818375        8.0906141649      -18.0173989608
 H        -2.3360542042        7.5693759849      -16.8712921186
 H        -0.1381665964        5.6875960764      -17.4446708789
 H        -1.6253937063        5.7153035071      -18.4704158765
 H         0.4942043358        1.5563552665      -16.4431490187
 H        -0.3230940120        1.3086226006      -15.0784822424
 H         2.0707680312        0.7507969680      -14.5951812748
 H         1.8616113035        2.1886197951      -13.6603937204
 H         3.2134559832        5.0073269114      -14.4775834248
 H         4.7151964735        5.5061047535      -13.6665786110
 H         3.2158618760        4.4337671154      -11.5800789645
 H         1.9383523792        5.2628303122      -12.4307780573
 H         1.6704132302        8.5615381577      -10.1755733670
 H         1.7689564720        8.5802033939       -8.3454930695
 H        -0.6690244859        8.5336882227       -8.9465699075
 H         0.0335944094        7.0799400803       -8.1808080748
 H        -1.1165463829        3.4350719728       -8.7966155899
 H         0.1729068127        3.4196094976      -10.0482454400
 H        -1.1137004792        1.1311279369       -9.6404918881
 H        -1.2062467704        1.7322168557      -11.3109390397
 H        -5.1640947063       -1.7693775766       -8.6478984916
 H        -5.3883713920       -0.0322788454       -8.1563325606
 H        -5.0091603125       -1.1227216914       -5.8508258978
 H        -3.4540194245       -0.5111024966       -6.4687078413
 H         0.5152821488       -3.5855531196       -6.4482758117
 H         0.0491340371       -2.5653853460       -7.7831019033
 H         1.5014932773       -4.0011714067       -8.6356096159
 H        -0.1485285038       -4.7710359438       -9.2546845917
 H        -0.4450698570       -8.5126353686       -7.2528366589
 H         0.4214894975       -9.6273919746       -8.2394164640
 H        -1.9772826023      -10.3479976223       -8.2177849461
 H        -1.5060039880       -9.7447153956       -9.9751263781
 H        -6.7485378740       -8.7413338278       -8.9888975324
 H        -7.4037179963       -7.3281077249       -9.6635837785
 H        -8.3044931277       -7.1302346053       -7.8081081109
 H        -6.9111600291       -5.8168688041       -7.8131161105
 H        -9.3262554689      -10.6259219563       -6.2018870392
 H        -8.0541349289      -11.6206950527       -5.6278738949
 H        -9.2979007916      -12.7250424388       -7.3122526255
 H        -7.6758328112      -12.4092792632       -7.9036494912
 H       -12.8190320416      -11.0791661555       -7.8056258661
 H       -13.3560262287       -9.7776090989       -8.8850623275
 H       -13.0923232363       -7.9801472308       -7.0235478180
 H       -12.1565863676       -9.1116558875       -6.0518885354
 H       -14.1263944055       -8.1175789138       -2.4396697158
 H       -12.4704653707       -7.8739412250       -3.0494630963
 H       -13.3479481799       -9.3820316837       -3.3435744269
 H       -16.7031138817       -7.4973827323       -6.8365504313
 H       -14.9727981104       -7.3082351188       -7.2936115417
 H       -15.7277246125       -6.2160346204       -6.1843670923
 H       -17.0422217940       -7.9043729535       -4.2443056779
 H       -16.0002193106       -9.3481057708       -3.7190706944
 H       -16.9391127986       -9.3351870192       -5.2112343729
 H       -10.7213039668      -11.2779061232      -11.7113555518
 H        -9.9573917557       -9.8053503325      -11.2110865020
 H       -11.7096188727      -10.0064428327      -11.1405761074
 H       -11.4062620737      -12.5407196865       -8.2089957093
 H       -10.5825853304      -13.0877527261       -9.7764907282
 H       -12.2382238761      -12.3284511728       -9.7864078013
 H        -5.5745054060       -9.3216812048       -4.6237083332
 H        -7.0374913105       -9.8425994144       -3.9472666103
 H        -6.3974167520       -8.1209722954       -3.7542591424
 H        -9.0090564128       -7.3700620682       -4.8375798137
 H        -9.3356261490       -9.0442932772       -4.8185815506
 H        -9.5633074905       -8.0864475980       -6.3079523863
 H        -2.7271121027       -9.0929295843      -11.2996826769
 H        -2.9486049082       -7.2561175561      -11.1661938166
 H        -4.2594868024       -8.3956807564      -11.8889341606
 H        -3.8386768065      -10.8062841111       -9.6260466204
 H        -5.3056564124      -10.2784167672      -10.4220249262
 H        -5.1867148318      -10.1051446963       -8.7157212133
 H         3.2585649204       -5.7970205612       -9.4120628790
 H         1.7425686856       -5.7115265019      -10.4548376278
 H         2.8468654487       -7.1845404175      -10.3136068406
 H         2.1738793355       -8.1227417455       -6.9379670101
 H         3.5752516585       -7.6553352053       -7.7644945152
 H         2.5947303272       -8.8994893688       -8.4019864039
 H        -0.7171250259       -2.1628243428       -5.2348005325
 H        -2.2300407186       -1.4698222028       -4.8152674169
 H        -1.6245066435       -1.1426675492       -6.3909960426
 H        -4.0060776978       -4.3273332858       -4.9047094469
 H        -2.7648857684       -3.5006231616       -3.8662498420
 H        -2.4124963669       -5.1153194174       -4.8406345643
 H        -5.5578033198        0.9377846845      -10.0620257320
 H        -5.3577877810       -0.7266600702      -10.4815667877
 H        -5.2342894433        0.6172305666      -11.6867484532
 H        -1.5882431440       -0.6881161519      -10.8148079886
 H        -2.5118397703        0.0213275871      -12.1441139704
 H        -3.0769987212       -1.4923695140      -11.4957682921
 H        -1.1421690414        5.1270141813       -8.0625132509
 H        -2.8550386137        5.0436959593       -8.1031482493
 H        -2.0954404129        6.6261023296       -7.9618668149
 H        -3.9562056057        5.7077778438      -10.6893885292
 H        -2.8675132261        6.8253377580      -11.5160050587
 H        -3.5882294039        7.2793791482       -9.8924308536
 H         4.1918434579        4.3525927869      -10.0703876336
 H         4.2040126088        5.0171423243       -8.5277914216
 H         5.4901047532        5.5155527061       -9.7252435336
 H         5.4292475806        7.8956686407      -10.3037691227
 H         4.9529690763        7.5934249666       -8.6192576116
 H         4.0084768226        8.7215236170       -9.7225720244
 H         6.2537562547        1.5397447381      -15.0403343993
 H         4.7158850503        0.5143484126      -14.9958662236
 H         5.4896276881        1.2601486348      -13.5015168196
 H         4.7956678405        4.5112846985      -16.1872801558
 H         5.6658775318        2.9719547305      -16.6739348007
 H         6.2923324449        3.9102444705      -15.2844411067
 H        -2.7093650525        3.3650769726      -14.4520761214
 H        -2.2141023105        1.8158881916      -15.1389801409
 H        -3.5109230782        2.7727509856      -15.9129743661
 H        -2.0492107794        1.9457206629      -17.6617003707
 H        -0.6202277783        2.8058154799      -18.1282343677
 H        -2.1693773839        3.4586874532      -18.4126584518
 H        -2.5888279052       10.0970989285      -16.4058256096
 H        -1.1093707089       10.4086432703      -17.3066195869
 H        -1.5138092017       11.3154156627      -15.9042853559
 H         1.3174896851        9.2067311369      -14.6591036862
 H         0.4463949286       10.7051134248      -14.2331484841
 H         1.1059175069       10.4741087038      -15.7416032506
 Na       -0.8120267740        5.8655827979      -13.6008394596
 Na       -4.2016874751       -5.6570289410       -7.2743482851
