232

 C       -20.8809002363       -7.2973800087       -1.7718257851
 C       -20.7766434693       -6.0262523863       -2.5819120792
 O       -20.3877612089       -4.9835894989       -2.0512643964
 C       -21.1047791707       -5.9720178468       -4.1700453564
 C       -19.9761950552       -5.3198336927       -4.8611873054
 O       -19.7644091735       -4.1339127243       -4.5929596260
 C       -18.9886934232       -6.0045573392       -5.8462734197
 C       -17.9236676681       -5.0454613754       -6.2896436781
 C       -17.2761864077       -4.2407449345       -5.1595455628
 O       -17.0366136788       -4.7493375492       -4.0549759652
 C       -16.7112003444       -2.7846509342       -5.4180320527
 C       -16.5529889033       -2.1453469713       -3.9507521731
 O       -17.5036222325       -1.6168826207       -3.4313942033
 C       -15.2276358397       -2.1524294444       -3.1721986511
 C       -15.3905652707       -1.6823639135       -1.6968104404
 C       -15.9590080876       -2.8136154706       -0.7628737442
 O       -17.0546158311       -3.2416658836       -0.9849175613
 C       -15.0980500440       -3.3373563636        0.4277988452
 C       -14.0047827342       -4.5321432948       -0.0040133881
 O       -12.9263855118       -4.4919367605        0.4010816595
 C       -14.4415578825       -5.5183613036       -1.1146021911
 C       -13.3166835598       -6.4406123240       -1.5632903014
 C       -13.2203355488       -6.6530884213       -3.1303757586
 O       -13.9113686704       -5.9652827838       -3.8383400670
 C       -12.1192001517       -7.5901915149       -3.7305686069
 C       -10.6570834525       -6.8622040050       -3.2407011820
 O       -10.6925064789       -6.1449644376       -2.2608819794
 C        -9.4258255611       -7.0109276442       -4.1770536032
 C        -8.0785434615       -6.4343836632       -3.4931115604
 C        -7.6871512730       -5.1071138134       -4.1234873171
 O        -8.2753213918       -4.7090785503       -5.1287223203
 C        -6.5730595426       -4.3924079920       -3.4933345177
 C        -5.2356233585       -5.1760497226       -3.1973411300
 O        -4.6578698007       -5.1073887850       -2.1307688019
 C        -4.5125010139       -5.8479392639       -4.4129436130
 C        -2.9963423517       -6.0311153804       -4.2237435883
 C        -2.0968636336       -4.7950412190       -4.4507053912
 O        -2.5511259302       -3.6688057330       -4.5474946451
 C        -0.6141835218       -4.9841783097       -4.4819159497
 C        -0.1643054381       -5.3696821222       -6.0229085238
 O         0.0955773273       -6.5467479962       -6.1716564182
 C        -0.0057889958       -4.2237643790       -7.0236395022
 C        -0.0092808009       -4.6941758373       -8.5179598421
 C         0.8797789417       -3.6862695400       -9.3447968240
 O         1.5469849652       -2.7981299221       -8.8079081989
 C         0.9542564532       -4.0634723290      -10.9050341284
 C         1.5891112409       -2.7856190270      -11.6112551021
 O         0.8710716609       -2.1313710852      -12.3912695750
 C         3.0460923552       -2.3467152907      -11.5883867270
 C         3.8223359126       -2.5545829274      -12.9089548255
 C         4.8579081812       -1.4881301030      -13.1915937385
 O         5.3508495894       -0.8369362642      -12.3229985006
 C         5.3498531299       -1.2288714573      -14.6509618106
 C         5.3952333496        0.2964567021      -14.9712271880
 O         5.0027252481        0.6891966656      -16.0545554609
 C         5.7867529526        1.3442482984      -13.9666729272
 C         7.2501847480        1.7585446544      -13.5840104418
 C         7.8086182465        2.5138405973      -14.7438026613
 O         7.9303949951        2.0197872324      -15.8908387143
 C         8.2293646165        4.0651357939      -14.6923167107
 C         6.8816809006        4.9367347319      -14.6026273894
 O         5.9895400035        4.5155329094      -13.8232549326
 C         6.6476302128        6.2133313357      -15.3357955151
 C         5.2631125954        6.0700650762      -15.9202935637
 C         5.3614636211        5.1621254284      -17.1201746024
 O         6.1919446515        4.2277027724      -17.1108932708
 C         4.4440027488        5.2112787733      -18.4832381278
 C         5.2703340497        5.9671515802      -19.5307760324
 O         5.1538724789        7.1598391439      -19.5454568272
 C         6.2084107630        5.2005859350      -20.4246091826
 C         7.5648058751        5.8636878215      -20.7342759104
 C         8.0660310299        5.4233787671      -22.2367582855
 O         7.2825575690        5.4666418305      -23.0774734915
 C         9.5371250478        4.9153491232      -22.3736145337
 C         9.4718072202        3.4762133744      -21.9943930961
 O         8.9723596874        2.6894889881      -22.7701624476
 C        10.1067753456        3.0652949553      -20.6336401736
 C         9.8069068174        1.5999318091      -20.3385164543
 C         8.3705454636        1.3801691537      -19.9923479294
 O         7.6891784779        2.1997473151      -19.4449931792
 C         7.6719036562        0.0576978952      -20.6464712534
 C         6.0806892990        0.2564934015      -20.6390501265
 O         5.5142784275        0.3327470000      -19.5529478190
 C         5.4691741331        0.3892268192      -21.9666979911
 C         8.3193802626       -0.4143418342      -21.9656828632
 C         7.8944717286       -1.1548275101      -19.6749353508
 C         9.8115338926        5.1156235734      -23.9472067974
 C        10.5321723085        5.8547797023      -21.5179544704
 C         4.1556199708        3.7697783904      -18.8722023570
 C         3.0924730409        5.8968105278      -18.1868701063
 C         8.9855856754        4.3235047360      -13.4367102139
 C         9.0231452028        4.4358977298      -15.9688822391
 C         6.8469355940       -1.6582333133      -14.8003352525
 C         4.5867144776       -2.0364551380      -15.7156444883
 C         1.8968731790       -5.2559556457      -11.1698884397
 C        -0.4741499956       -4.3368589783      -11.4635582855
 C         0.1661177628       -3.7126424743       -4.0240302838
 C        -0.1902296879       -6.2282708241       -3.5529507684
 C        -6.1287571678       -3.1093259896       -4.3649065614
 C        -7.0627948345       -3.7127948072       -2.0744905976
 C       -12.1267734935       -8.9932618907       -3.1629739758
 C       -12.2641855451       -7.6062426988       -5.2700387260
 C       -14.3082218604       -2.1630390636        1.1236910218
 C       -16.0980324106       -4.0021843414        1.4461789546
 C       -15.3990565790       -2.9263348302       -6.2027815339
 C       -17.7774471057       -1.9847290385       -6.2079387818
 C       -21.5521730508       -7.3830468228       -4.7080608346
 C       -22.2797276321       -4.9841870783       -4.3250937081
 H       -21.6781807380       -7.1309980525       -1.0415467833
 H       -19.8619206926       -7.3712135913       -1.2363383141
 H       -20.9923525490       -8.1893305534       -2.4418308355
 H       -19.4624635256       -6.4446667531       -6.7025189846
 H       -18.5952127271       -6.8615666723       -5.3015507915
 H       -18.3193059248       -4.4455697143       -7.0523661001
 H       -17.1881958704       -5.6442939005       -6.7950670351
 H       -14.4763441010       -1.5718886197       -3.7290747470
 H       -14.9531789204       -3.1720982083       -3.1392735657
 H       -16.0788752134       -0.8408285534       -1.5963992872
 H       -14.4598663494       -1.3073191619       -1.2824184239
 H       -14.7505228894       -4.9050317155       -1.9463192989
 H       -15.3485102642       -6.0769559006       -0.8899465255
 H       -13.4153552488       -7.4696787426       -1.1406777535
 H       -12.3969778051       -6.0585164203       -1.1226235551
 H        -9.6549024957       -6.4433643640       -5.0244473774
 H        -9.2306512087       -8.0090340452       -4.5488975641
 H        -7.3092080556       -7.2121706195       -3.6488014318
 H        -8.1839309589       -6.1556452128       -2.4001019536
 H        -4.6582204180       -5.3820198053       -5.3621435831
 H        -4.8356408515       -6.8506837658       -4.5014609325
 H        -2.6223878071       -6.8134298739       -4.9584362289
 H        -2.8026478733       -6.3890912196       -3.2146693215
 H         0.9158665344       -3.8009871995       -6.6918275119
 H        -0.7179116616       -3.3476989757       -6.9135557859
 H        -1.0277885043       -4.7729838530       -8.8657086347
 H         0.4086443200       -5.6714888667       -8.5625570541
 H         3.5643148483       -2.8443548740      -10.7407621513
 H         3.0762592210       -1.3076560357      -11.2269632361
 H         3.2595261076       -2.5476012829      -13.7703143843
 H         4.4562940124       -3.4738295339      -12.8689877975
 H         5.2230121413        1.2898532913      -12.9800257549
 H         5.3836974601        2.3998009993      -14.2604927354
 H         7.8635962713        0.8798389497      -13.3164162732
 H         7.2973178818        2.4228895294      -12.7317008081
 H         7.2447434602        6.4983586879      -16.2041036500
 H         6.7375264648        6.9732521925      -14.5052980767
 H         4.9128044801        6.9922018858      -16.3491354874
 H         4.5368854293        5.6305097531      -15.2525383576
 H         5.7703462473        5.0210783274      -21.4129495151
 H         6.4628816122        4.2213603906      -19.9885138545
 H         8.4170860610        5.5435611094      -20.1120371617
 H         7.6300685630        6.9504065846      -20.6863056635
 H         9.8317561697        3.7812122665      -19.8817491067
 H        11.1731831741        3.2332605418      -20.7778941278
 H        10.2423615011        1.4076780803      -19.3486424868
 H        10.2213905529        1.0187098276      -21.1068956753
 H         5.9094669432       -0.4990660237      -22.5598354099
 H         5.8297818690        1.2134370598      -22.5462524776
 H         4.3778120769        0.2468790222      -21.9135001597
 H         7.7336877903       -1.1498535542      -22.5186227517
 H         9.2521522819       -0.7398361937      -21.7267848769
 H         8.5133401073        0.2958893844      -22.8304959625
 H         7.4357139358       -2.0798215376      -20.1009317483
 H         7.6092051355       -0.9068445014      -18.6171717124
 H         9.0053252002       -1.2692976154      -19.6255424740
 H        10.8445185451        5.3052917005      -23.9408158386
 H         9.3101314383        5.9411888313      -24.2751271564
 H         9.5965257666        4.2922390769      -24.6499780014
 H        11.5868688556        5.6961098894      -21.8116023452
 H        10.5176792183        5.5650646864      -20.4898811971
 H        10.1776082206        6.8783738625      -21.3821517639
 H         3.4063239119        3.2554761542      -18.2904387929
 H         5.0212817925        3.1597087709      -18.8723519559
 H         3.7720856414        3.6975243716      -19.8904428990
 H         3.2821047343        7.0101273645      -18.1024290800
 H         2.5906588447        5.5314178039      -17.3232117811
 H         2.3625240570        5.7599608633      -18.9649709783
 H         9.6382282611        5.1167629126      -13.6928802811
 H         9.6486979095        3.4412289847      -13.3404933685
 H         8.4142250022        4.5292447215      -12.5242892326
 H         9.8770734998        3.7697321950      -15.8544485521
 H         9.4780860365        5.4899701576      -15.9779332808
 H         8.5759521333        4.3100749323      -16.9390166407
 H         6.8749196362       -2.7782526143      -14.5947204713
 H         7.3903831745       -1.1322165311      -13.9335948190
 H         7.1582928275       -1.5977695586      -15.8442959858
 H         4.4960815939       -3.0742313301      -15.3444669325
 H         5.0770768051       -1.9966538633      -16.6782303074
 H         3.4844304662       -1.7635797095      -15.7143595490
 H         1.3415680906       -6.1788566351      -10.7839246711
 H         2.8516359591       -5.1956062668      -10.6700579434
 H         2.0379461881       -5.4676424357      -12.2546413335
 H        -1.3010602995       -3.8307365416      -10.9157866699
 H        -0.6959011052       -5.3959920934      -11.3474277285
 H        -0.6056695491       -4.0523897573      -12.5171173588
 H        -0.1928969780       -3.4257908958       -2.9885059497
 H        -0.0223929380       -2.9976936247       -4.8264656471
 H         1.2109728817       -3.9629028326       -3.9552459779
 H        -0.4753404098       -7.1370189053       -4.0409922316
 H        -0.8587890004       -6.1471912928       -2.6406708365
 H         0.9130463652       -6.2027575411       -3.4181761137
 H        -5.5877462907       -3.4217760457       -5.2398098635
 H        -5.5486396034       -2.4940984005       -3.6746799940
 H        -7.0565463907       -2.5303468223       -4.7339045936
 H        -7.8538347264       -2.9894423030       -2.2960865679
 H        -6.1543226000       -3.2846903795       -1.5632538571
 H        -7.5018658635       -4.4925552137       -1.4891499134
 H       -12.9080176527       -9.6326567292       -3.5914582993
 H       -12.1769281634       -9.0133556905       -2.0998329289
 H       -11.2324419885       -9.6397664639       -3.4775911065
 H       -13.3543730024       -7.7005147309       -5.4927559615
 H       -11.9301550951       -8.5203935453       -5.7478207047
 H       -11.8387599643       -6.7207486035       -5.6222473165
 H       -13.5268214421       -2.5712405472        1.7614487238
 H       -15.0044004828       -1.5800374519        1.7938828279
 H       -13.8293116907       -1.4930852051        0.3684399742
 H       -15.7197656624       -4.3854081142        2.4434420906
 H       -16.5232430544       -4.8624578754        0.8135080344
 H       -17.0317285404       -3.3997121142        1.6680712885
 H       -15.4400215276       -3.4581501692       -7.1174102931
 H       -14.5277106028       -3.3707812825       -5.5987788817
 H       -15.0281753951       -1.9111097553       -6.2958146411
 H       -18.7016114678       -2.3097682062       -5.9431582124
 H       -17.6940882672       -2.0737109357       -7.3637664120
 H       -17.4587120622       -0.9402234833       -6.0647904639
 H       -20.8453543053       -8.1808991753       -4.5465705574
 H       -21.8447546202       -7.2146147582       -5.7847663837
 H       -22.4663679777       -7.5994565578       -4.1359897541
 H       -22.9815354137       -5.0931479273       -3.5187867347
 H       -22.7587177629       -5.0906809289       -5.2929268695
 H       -21.8145947122       -3.9785763778       -4.2261791422
 Na      -18.7582810317       -3.2950598457       -2.5329379749
 Na        6.2874015633        1.7813143602      -17.6033067825
