232

 C        -2.3143028006       10.3577877899      -13.4088467113
 C        -1.6139656738        9.1446962904      -14.0520703489
 O        -1.7101045331        8.0395024276      -13.5534651017
 C        -0.7492047629        9.3815645905      -15.3712321546
 C        -0.4516826731        7.8813410899      -15.9041234904
 O         0.4818949646        7.2054294856      -15.4744609108
 C        -1.2697592901        7.3563258960      -17.0564694863
 C        -1.0178370454        5.8863444479      -17.1651122871
 C        -1.7749542491        5.0643533086      -16.1626349389
 O        -2.6298539420        5.5633795492      -15.3985185855
 C        -1.4910435601        3.4334166753      -16.1235858103
 C        -0.1928085388        3.2289452259      -15.4169423620
 O         0.2676250846        4.1850337731      -14.7753484806
 C         0.6346998840        1.9555717080      -15.6257458074
 C         1.8483238640        1.9951254338      -14.8151463110
 C         3.0485276139        2.3736862961      -15.6892678554
 O         2.9260929673        2.6236442240      -16.8425272552
 C         4.5170167379        2.6221909592      -14.9891967588
 C         4.1784783248        3.2992692997      -13.5702000824
 O         4.3017817990        2.7130975241      -12.5022049967
 C         3.7115961975        4.8123029676      -13.5871537745
 C         2.9759293910        5.2793162439      -12.3201747454
 C         3.4665983063        6.4577523425      -11.5793251202
 O         3.7104207262        7.4989375670      -12.0850620163
 C         3.7496019845        6.4479053581       -9.9384451608
 C         2.2871110837        6.6336766543       -9.4078344063
 O         1.6865850133        5.7558318148       -8.8528393380
 C         1.5964441870        8.0248800653       -9.7028345592
 C         0.0639926395        7.9012711233       -9.4257041434
 C        -0.6177848822        6.9180193436      -10.3666451570
 O        -0.2187037252        7.0445615637      -11.5270789658
 C        -1.7904716630        5.9439031863       -9.9798771566
 C        -1.4933339703        4.5656393205      -10.5947673782
 O        -1.5190457903        4.4607009303      -11.8695570738
 C        -1.0553451516        3.3204704377       -9.6834743686
 C        -1.3646080553        2.0506299974      -10.4730315620
 C        -2.9197465447        1.6221577521      -10.2647845058
 O        -3.7300051768        2.3417267587       -9.6680166263
 C        -3.4185011609        0.1082412522      -10.3789728499
 C        -3.2100100840       -0.3214251623       -8.8726631322
 O        -2.0635375870       -0.3438020903       -8.4241161473
 C        -4.5406757735       -0.4569241905       -7.9869484684
 C        -4.5014618719       -1.1806037506       -6.6249322714
 C        -3.9946740013       -2.6802993664       -6.7408606873
 O        -4.6792952465       -3.5036633812       -7.2013956846
 C        -2.6131415176       -3.1655559014       -6.1142017420
 C        -1.6264135587       -3.8205076175       -7.2165131593
 O        -2.2719831357       -4.5504909904       -7.9929014454
 C        -0.1626131672       -3.7503557901       -7.0857368614
 C         0.6573067537       -4.4536408700       -8.1520601062
 C         0.9377055242       -5.9381713816       -7.6926833183
 O         0.6631425370       -6.3234608858       -6.5891097454
 C         1.5116435369       -6.9925508653       -8.7185729740
 C         0.2338090594       -7.7182920887       -9.2371393087
 O        -0.3257022239       -7.4701494492      -10.2928649643
 C        -0.3532503338       -8.9465741310       -8.4504609921
 C        -1.7217429827       -9.4421369412       -8.7743688360
 C        -2.7787047575       -8.3593839257       -8.6313590739
 O        -2.6435380808       -7.4784091999       -7.8705158724
 C        -4.0827529268       -8.5667619664       -9.6269800731
 C        -5.0726843611       -7.4613159391       -9.3191180119
 O        -4.7636459448       -6.2959706975       -9.4988705154
 C        -6.5952956577       -7.6780144549       -9.0352646594
 C        -7.0464379625       -6.8634030192       -7.7861285319
 C        -6.6062431971       -7.4770370118       -6.4733478830
 O        -5.5948686678       -7.0314130506       -5.9822981141
 C        -7.4784786492       -8.4844375952       -5.6503211449
 C        -7.3245236363       -9.8136481570       -6.5367742331
 O        -6.2860331666      -10.1876867833       -6.9602363666
 C        -8.5968440455      -10.5993719787       -6.6482488415
 C        -8.5850225010      -11.6861578922       -7.7910610294
 C        -9.0136970786      -11.1352221163       -9.1089377354
 O        -8.2384117958      -10.5112349220       -9.8059809353
 C       -10.5443184498      -11.0749634396       -9.4684248708
 C       -11.3179266219      -10.1285829841       -8.4614342051
 O       -10.7359916270       -9.1489751799       -8.0727168883
 C       -12.6500213556      -10.2943297918       -7.8309143423
 C       -13.0060499844       -9.1483410594       -6.9086857825
 C       -14.1453930349       -9.5398444442       -5.9636661029
 O       -14.3379593806      -10.6991625683       -5.6106200742
 C       -15.0715718191       -8.2804662947       -5.3722331744
 C       -14.0645840076       -7.4693197608       -4.4782401834
 O       -13.6804159007       -6.3573346356       -4.7353909614
 C       -13.6639101243       -8.1064963397       -3.1532772598
 C       -15.6902442743       -7.3601587498       -6.4101293880
 C       -16.1804974827       -9.0352202107       -4.5458995965
 C       -10.6375706995      -10.5011581613      -10.9178220427
 C       -11.1732153241      -12.5374896506       -9.3944541427
 C        -6.6314698733       -8.7175087712       -4.3121920290
 C        -8.8948069769       -7.9435206088       -5.2235919989
 C        -3.5569380590       -8.2655199934      -11.1219349369
 C        -4.7469795622       -9.9726764110       -9.6604914596
 C         2.2695190863       -6.5253532858      -10.0111376101
 C         2.3429280745       -7.9802890033       -7.9471908923
 C        -1.8844967857       -1.9888727536       -5.3291861050
 C        -2.9382993463       -4.2300517337       -5.0130929027
 C        -4.8858779952        0.0113711584      -11.0023410727
 C        -2.5814477617       -0.8132428518      -11.2588425733
 C        -2.1343446483        5.9461234514       -8.4798555346
 C        -2.9690411312        6.4881233897      -10.8169333738
 C         4.4090988581        5.1127421177       -9.4409455597
 C         4.5858426988        7.7028914475       -9.5794634517
 C         5.2910055906        1.2401771993      -14.6953077491
 C         5.1693624878        3.5081737590      -15.9395907743
 C        -2.7593986707        2.8178720962      -15.3838790083
 C        -1.2977650685        2.9259162936      -17.5644498141
 C        -1.4347374522       10.2771422067      -16.3822262565
 C         0.6262299282        9.9486614636      -14.8150544023
 H        -2.8708891419       10.9943848762      -14.1137709833
 H        -1.5899952891       11.0461009032      -12.9293513447
 H        -3.0317030631       10.0249573221      -12.6571668557
 H        -0.8040315336        7.8311323793      -18.0021363106
 H        -2.3105300006        7.6113716227      -17.0948897680
 H         0.0962491431        5.6682201368      -17.2120593523
 H        -1.5530801972        5.5311537770      -18.0529236973
 H         0.8330072082        1.9935483181      -16.6997372112
 H        -0.0171307368        1.1307948574      -15.6621134936
 H         2.0578522076        0.9593789999      -14.4610683788
 H         1.7593740581        2.6058498636      -13.9224250394
 H         3.0524203932        5.0806790049      -14.4079590704
 H         4.6202992581        5.4241157383      -13.7115953666
 H         2.7867670207        4.4644172265      -11.6190348958
 H         1.9694766390        5.6443078681      -12.6417303872
 H         1.6218722252        8.3388485417      -10.7598203596
 H         2.0532468742        8.7903875272       -9.0754666309
 H        -0.2686178793        8.8972755879       -9.6029383666
 H         0.0348204317        7.6732595661       -8.2918883933
 H        -1.6648661364        3.2694338767       -8.7841077186
 H        -0.0756428893        3.4373876328       -9.3260879712
 H        -0.7035528990        1.2323153297      -10.1711339992
 H        -1.2498414261        2.1380683980      -11.5669932631
 H        -5.3480512093       -0.8433785614       -8.4711708613
 H        -4.9194360652        0.5583025504       -7.6453349750
 H        -5.5727279841       -1.1731656713       -6.2832474243
 H        -3.8860079942       -0.5682464793       -5.9743840050
 H         0.1207511038       -4.2399311312       -6.1394556085
 H         0.1956024608       -2.7606491536       -6.9864538376
 H         1.6202693885       -3.9977103202       -8.1840916221
 H         0.1410473021       -4.5376792375       -9.1192799325
 H        -0.3760162530       -8.7458807437       -7.4127828271
 H         0.3355861600       -9.8181248326       -8.5575716647
 H        -1.9612289296      -10.2391410015       -8.1544308584
 H        -1.7340332355       -9.7346446623       -9.7839883405
 H        -6.9293613024       -8.7086146939       -8.8945552238
 H        -7.2270263241       -7.3137319155       -9.8207736045
 H        -8.1003981570       -6.8151602040       -7.7149076303
 H        -6.6335087063       -5.8874889736       -7.8191122461
 H        -9.5013450498       -9.9406208059       -6.6998891222
 H        -8.6377303073      -11.1088165751       -5.6145495661
 H        -9.2030964803      -12.5278305948       -7.5631447423
 H        -7.5561801581      -12.0586938566       -7.8443422872
 H       -12.6088631872      -11.2532476737       -7.3560172955
 H       -13.3894449613      -10.4040070649       -8.6831618634
 H       -13.2070116230       -8.1993153198       -7.4144644842
 H       -12.1947638709       -8.8892657172       -6.2735355692
 H       -14.3762435116       -7.7090341794       -2.4174292975
 H       -12.7120530033       -7.8533189276       -2.7961576465
 H       -13.6866043589       -9.2180260668       -3.0536017703
 H       -16.7443191051       -7.3997264062       -6.4610369430
 H       -15.2646433957       -7.5530565424       -7.4000672017
 H       -15.5064336585       -6.3287685873       -6.1322194176
 H       -17.0840481738       -8.5279672273       -4.4024678302
 H       -15.7351467862       -9.4010216327       -3.5969030007
 H       -16.4214760028       -9.9892195435       -5.1240363319
 H       -11.6087298319      -10.5460445246      -11.2965020468
 H        -9.9518282899      -10.8856825328      -11.6989986396
 H       -10.4798564071       -9.3777405643      -10.8486501948
 H       -11.3346394756      -12.9017155137       -8.4342648702
 H       -10.6314274331      -13.1736809373      -10.1161723840
 H       -12.1764845229      -12.4443489007       -9.7762341427
 H        -5.5652329948       -8.7672599412       -4.4862261907
 H        -6.9615583690       -9.5609734095       -3.7292856623
 H        -6.7238209288       -7.8282465633       -3.6958023019
 H        -8.8144060611       -6.9715203674       -4.7941737689
 H        -9.3728035979       -8.5560790422       -4.5003889575
 H        -9.5742409426       -7.8710992406       -6.0705637700
 H        -2.9804447825       -9.0011302411      -11.6251956940
 H        -3.1022405616       -7.3496959018      -10.9537866426
 H        -4.4768628484       -8.1045668147      -11.6792393490
 H        -3.9515824606      -10.6823462233      -10.0261532521
 H        -5.5251081448       -9.9766585758      -10.3241873257
 H        -5.2582954829      -10.3313005803       -8.7822204298
 H         3.0078392038       -5.7494644599       -9.8839689424
 H         1.3829606089       -6.2097510842      -10.6039819647
 H         2.8112910819       -7.3637812511      -10.5038096063
 H         1.8358585700       -8.4715643251       -7.0901996802
 H         3.2381607196       -7.4784274026       -7.5772391710
 H         2.7324637610       -8.7515341727       -8.6007793982
 H        -1.1255252083       -2.4598614692       -4.6531456730
 H        -2.6171126634       -1.5178527912       -4.6581537045
 H        -1.4336997546       -1.1838951211       -5.8801691217
 H        -3.9974512130       -4.3302992241       -4.7857839422
 H        -2.4927645915       -3.8816770122       -4.0986768499
 H        -2.5148169897       -5.2076590933       -5.2716387518
 H        -5.6612762756        0.5559849094      -10.4474911848
 H        -5.1348694479       -1.0645930175      -11.2494071056
 H        -4.7812427649        0.6653905628      -11.8505222364
 H        -1.5582652053       -0.8869517120      -10.9861130814
 H        -2.5731983557       -0.4094013854      -12.2828478630
 H        -3.0539674160       -1.7993389140      -11.2359669668
 H        -1.2923292198        5.8013087701       -7.8009807538
 H        -2.8980758266        5.2318518622       -8.1968718123
 H        -2.6840959290        6.8445637800       -8.2789735243
 H        -3.6677555080        5.7354181211      -11.0595932325
 H        -2.7423069887        6.9665428471      -11.7275545157
 H        -3.3914917909        7.1529921435      -10.0770307063
 H         4.0410650401        4.2538387477       -9.9204007478
 H         4.0655238394        4.8635818271       -8.4123358606
 H         5.5269950376        5.1410883769       -9.4334389531
 H         5.3849069182        7.7713414119      -10.3785425194
 H         4.9139749210        7.5778832672       -8.6169700804
 H         3.9617539152        8.6083282984       -9.6497788317
 H         5.7733226672        1.0359854898      -15.6385202957
 H         4.6358849564        0.4295687142      -14.4056118590
 H         6.1148564967        1.3938113126      -14.0610132426
 H         4.3735391927        4.0905769354      -16.4495092760
 H         5.7149689371        2.9719333347      -16.7070692552
 H         5.8875130557        4.1804491339      -15.3263308702
 H        -3.4590324765        3.6087883779      -15.1288575855
 H        -2.5411774206        2.2647090633      -14.5164874431
 H        -3.2926354151        2.2556590271      -16.1614553317
 H        -1.0040187769        1.7909375696      -17.6363777023
 H        -0.5400166738        3.4211213233      -18.1657025392
 H        -2.2087362179        2.9743432502      -18.1819475798
 H        -2.4884063672       10.0043923300      -16.6683033913
 H        -0.8115244974       10.4317341174      -17.2860853956
 H        -1.4328444926       11.3174919808      -15.9945694059
 H         1.0834766073        9.4636556487      -13.9938540637
 H         0.4962909508       11.0043655801      -14.6270449155
 H         1.4688338549        9.9102358836      -15.4969480638
 Na       -0.8759706937        5.9430310528      -13.6654639638
 Na       -4.1536146332       -5.8087900290       -7.3718146701
