232

 C        -2.3577062985       10.8996151388      -14.1788584425
 C        -1.6037700197        9.6293239468      -14.2264324003
 O        -1.9072299186        8.6108973121      -13.6130508803
 C        -0.4867727839        9.4960775176      -15.2836167569
 C        -0.4472417590        8.0057906746      -15.6688585075
 O         0.2793237314        7.2813365269      -15.0144174004
 C        -1.2577412765        7.4230272815      -16.7960329078
 C        -0.9387829746        5.8819262218      -17.1251349330
 C        -1.7748103237        4.9632821275      -16.0892390420
 O        -2.5775138592        5.3908620554      -15.2777500237
 C        -1.4541621362        3.4404505584      -16.2348964686
 C        -0.1555171654        3.1387402759      -15.4242576845
 O         0.3926546096        3.7666988848      -14.5441113818
 C         0.6180091769        1.8357091221      -15.8683850455
 C         1.9968094073        1.7532883932      -15.1475079858
 C         3.0881698494        2.5864868353      -15.8665353301
 O         2.9057409212        3.1900210494      -16.9112736795
 C         4.4977331074        2.6066482418      -15.0272750098
 C         4.0839528498        3.2022784292      -13.6678729429
 O         3.9954887708        2.3858072029      -12.7492460699
 C         3.7442578877        4.6561278644      -13.5751761506
 C         2.9360642089        5.1165344081      -12.2893692165
 C         3.6180270687        6.2888142453      -11.4932397725
 O         4.1917642604        7.2192027731      -12.0643558498
 C         3.5448509523        6.1529952399       -9.9216192148
 C         2.1138275681        6.6489561610       -9.5732546971
 O         1.2296021469        5.8020788666       -9.2366607055
 C         1.6846640554        8.0917843263       -9.6916523049
 C         0.1463296638        8.1584507236       -9.8392244871
 C        -0.3252332774        6.9656653096      -10.6847672876
 O         0.2369792708        6.8977748701      -11.7611028010
 C        -1.6762774651        6.2203862404      -10.3762606461
 C        -1.4116418900        4.7134281798      -10.7906744246
 O        -1.4389337095        4.3374654054      -11.9326755940
 C        -1.1772210575        3.6581211957       -9.5964721247
 C        -1.3784330945        2.2022711431       -9.9349240816
 C        -2.7954280953        1.6663881067      -10.0360485678
 O        -3.7050980448        2.4150024444       -9.9940535943
 C        -2.9258721950        0.0765398106      -10.2094424486
 C        -3.0393242903       -0.6486908157       -8.7863137655
 O        -2.0448855836       -1.1682062297       -8.3310940427
 C        -4.3295852256       -0.6319910231       -8.1231025179
 C        -4.2442796855       -1.1561821880       -6.7128728128
 C        -3.8291732434       -2.6273291233       -6.6183379670
 O        -4.5559153120       -3.4279139561       -7.1882074464
 C        -2.6782921109       -3.2398690392       -5.8044651841
 C        -1.7252387492       -3.7755610510       -7.0484903515
 O        -2.1299672435       -4.1837372662       -8.1238680873
 C        -0.2213409468       -3.7670900155       -6.7190539563
 C         0.7233489981       -4.5789129530       -7.7102040574
 C         0.6167021215       -6.1123676935       -7.6055404669
 O         0.2058337274       -6.5499023686       -6.5511891801
 C         1.2125813116       -7.0729111001       -8.7814865253
 C         0.0402196083       -7.9138418768       -9.2872232892
 O        -0.5131943690       -7.6459148732      -10.3377937458
 C        -0.5258009749       -8.9958805286       -8.3198903604
 C        -1.8520060668       -9.6233122020       -8.8306859650
 C        -3.0482193880       -8.5281425627       -8.8799342014
 O        -3.0201355360       -7.6049042459       -8.0202955448
 C        -4.1533869044       -8.5886085882      -10.0037098782
 C        -5.2628775335       -7.6589473203       -9.4663214943
 O        -5.1034492932       -6.4376433496       -9.6678981912
 C        -6.5155840271       -8.1382163003       -8.7567806702
 C        -7.1981822026       -7.1301072279       -7.8258184376
 C        -6.7220822420       -7.2347504290       -6.4228360245
 O        -5.6293309977       -6.6922104909       -6.2612831374
 C        -7.4233674815       -8.1205629980       -5.4036212757
 C        -7.4150424706       -9.5681846701       -6.0739716183
 O        -6.3242227160      -10.1170402757       -6.3266918166
 C        -8.6785399585      -10.2386114505       -6.5699096632
 C        -8.4732012464      -11.3743181401       -7.5645732672
 C        -8.9725520537      -10.8925302371       -8.9434184028
 O        -8.1942291437      -10.3549710253       -9.7111060651
 C       -10.5830166942      -10.9572155633       -9.3616861329
 C       -11.3789470396      -10.0279762043       -8.3422736144
 O       -11.1719720803       -8.8546133607       -8.2749510266
 C       -12.4848109803      -10.6311599123       -7.4134973057
 C       -13.5420022672       -9.5485214254       -7.1343558538
 C       -14.0305469310       -9.6029287338       -5.6736790397
 O       -13.5495902950      -10.3485104258       -4.8513448967
 C       -15.1383359413       -8.6566284638       -5.1785522297
 C       -14.2652208483       -7.5946283639       -4.3120332292
 O       -13.7118564702       -6.6561067699       -4.8848326977
 C       -13.8399945915       -7.9231350644       -2.9254956499
 C       -15.9636596971       -7.9569818796       -6.3914370850
 C       -16.1190144341       -9.5985496326       -4.3038465753
 C       -10.6751977013      -10.5276506799      -10.7886307780
 C       -10.9177413239      -12.5443711523       -9.2278375293
 C        -6.6740364405       -7.9959189165       -4.1249253952
 C        -8.8962149932       -7.7157881158       -5.2058052697
 C        -3.5613268743       -8.1256701366      -11.2746105546
 C        -4.6534429490      -10.0656578309      -10.2319463379
 C         1.6085627424       -6.2043927550      -10.0084017880
 C         2.3570378405       -7.9907977376       -8.1975725177
 C        -1.8461082740       -2.2203440223       -5.0052537396
 C        -3.2194595081       -4.4540095637       -4.9846665203
 C        -4.1543849162       -0.2483982580      -11.0522504038
 C        -1.6049475199       -0.4050323168      -10.9120894206
 C        -2.1263347173        6.3383834167       -8.8628954201
 C        -2.8458906710        6.7742980163      -11.3669191718
 C         3.9840172447        4.8325316305       -9.2954666540
 C         4.5939707237        7.3084081033       -9.3865565085
 C         5.1140040183        1.2386946645      -14.8305598662
 C         5.2957984776        3.5851455972      -15.9476882276
 C        -2.7286982976        2.7120014265      -15.5392418752
 C        -1.3585447178        2.9248414447      -17.6843957037
 C        -0.8450776151       10.3892612031      -16.6006392036
 C         0.8388634549        9.9492523232      -14.6438673432
 H        -3.3288894543       10.7684585826      -14.7101593456
 H        -1.8683759753       11.7389197119      -14.6414548452
 H        -2.5041952625       11.3160407345      -13.1759883867
 H        -1.1677785384        8.1042677324      -17.7078674760
 H        -2.3180702355        7.5214675786      -16.4800018065
 H         0.0973389916        5.5707780504      -16.9754512020
 H        -1.0546928879        5.6299766311      -18.2132299961
 H         0.6017793822        1.8229237992      -16.9481629259
 H        -0.0438387679        0.9988292976      -15.6685006998
 H         2.2077312094        0.6671767859      -15.1130661698
 H         1.9489712996        2.1236323074      -14.1166036436
 H         3.0561359084        4.8772641198      -14.3846924991
 H         4.5912459368        5.3389469545      -13.7457817537
 H         2.7588013184        4.2787580295      -11.5853924606
 H         1.9242247090        5.5100067205      -12.4870085203
 H         2.1439795373        8.4292106699      -10.6297855070
 H         1.8988493681        8.7705744387       -8.8696783416
 H        -0.2559887670        9.0961637562      -10.3358398907
 H        -0.1271445670        8.2286579195       -8.7956611062
 H        -1.7900090860        3.8972642235       -8.8194438385
 H        -0.1982598263        3.8856231365       -9.2148213811
 H        -0.6961137566        1.6182942111       -9.2124376319
 H        -0.9047245282        2.1142527277      -10.8906861643
 H        -5.1147863542       -1.2413254055       -8.7619348503
 H        -4.7779556800        0.2996912445       -8.1621298510
 H        -5.1197187139       -1.1358101954       -6.0237708844
 H        -3.5704970379       -0.4220953815       -6.2986753381
 H        -0.0689991181       -4.1164467313       -5.7035322095
 H         0.2172304569       -2.7947149802       -6.6967355370
 H         1.7659704510       -4.3822528955       -7.5619090238
 H         0.5317796205       -4.2347485492       -8.7623394344
 H        -0.7177257651       -8.4073324541       -7.3423730205
 H         0.1210738512       -9.8273440769       -8.0583017027
 H        -2.0612927090      -10.4924555752       -8.2274588258
 H        -1.6865293915       -9.9752755159       -9.8107179505
 H        -6.4496111953       -9.1624477027       -8.3554415006
 H        -7.2484006369       -8.1671352097       -9.5413334948
 H        -8.2655056357       -7.0569641385       -7.8960219816
 H        -6.9052844685       -6.1566448030       -8.1384459304
 H        -9.4378094685       -9.4541821232       -6.8363769614
 H        -9.1790276689      -10.7751700022       -5.6796243834
 H        -8.9451227663      -12.2728201405       -7.1796098867
 H        -7.4032594175      -11.5212862224       -7.6075185853
 H       -12.0088222873      -10.9253488051       -6.4530890450
 H       -12.9028655761      -11.4993860572       -7.8311124120
 H       -14.3565059874       -9.9589233309       -7.6862705269
 H       -13.5407333759       -8.5379370563       -7.5107920870
 H       -14.6620792229       -7.8464801231       -2.2366814708
 H       -13.1214178250       -7.1486938459       -2.4985016342
 H       -13.3415467002       -8.8330130790       -2.7716864288
 H       -16.9911312079       -7.8866245851       -6.0753839926
 H       -15.9458113320       -8.5360539711       -7.2744110151
 H       -15.6549738449       -6.9100462561       -6.6087816891
 H       -16.9783703836       -8.9405508492       -3.9810065754
 H       -15.7267974090      -10.1398165528       -3.4254453218
 H       -16.3761802166      -10.3624131981       -4.9886934076
 H       -10.1848453419      -11.3170013799      -11.4215790201
 H       -10.1158609586       -9.6221831037      -11.1076176084
 H       -11.6453433852      -10.3580529618      -11.0695500408
 H       -10.9952546024      -12.6342691442       -8.1460335238
 H       -10.1068018387      -13.0648181302       -9.6253016608
 H       -11.8315315552      -12.7853486411       -9.7780975708
 H        -5.6798507396       -8.2782671975       -4.3240671132
 H        -7.0716801457       -8.5779945151       -3.3306184424
 H        -6.6658788700       -7.0185373631       -3.6881247168
 H        -8.9414919631       -6.6886569435       -4.9552024091
 H        -9.3787755373       -8.2654518670       -4.4289876463
 H        -9.5250283399       -7.8969738484       -6.0669647426
 H        -2.6313823898       -8.6466270041      -11.3729290027
 H        -3.4654772384       -7.0512332878      -11.2620254568
 H        -4.2119519496       -8.4974858689      -12.0015305050
 H        -3.8028323949      -10.5055385569      -10.6681359149
 H        -5.5765828031      -10.2184040201      -10.9088676642
 H        -4.7427417663      -10.6061272248       -9.2958268160
 H         2.4214036157       -5.4740957181       -9.7049043675
 H         0.7653375545       -5.8260013566      -10.5551834542
 H         1.9888112143       -6.9624046262      -10.6871242039
 H         1.9679350516       -8.5297976801       -7.3681117673
 H         3.2446141918       -7.4697668563       -7.8993811732
 H         2.6108387724       -8.8030950486       -8.9093772099
 H        -1.1407402658       -2.6865961973       -4.3282662952
 H        -2.5355981295       -1.6710725375       -4.4005126005
 H        -1.2342787615       -1.5687921030       -5.6888452972
 H        -4.0287113043       -4.0724376613       -4.4008320788
 H        -2.4179615192       -4.8302773699       -4.3753487682
 H        -3.3549114097       -5.3012239469       -5.6392666376
 H        -4.9903503977        0.0527620264      -10.4028051530
 H        -4.0887937109       -1.3226408147      -11.2777676294
 H        -4.1396637782        0.2742946748      -12.0035325769
 H        -0.8237039593       -0.6325773031      -10.1586079630
 H        -1.2743312681        0.2484334457      -11.6945519804
 H        -1.8632774943       -1.3838287682      -11.3010332028
 H        -1.3525615426        5.8565291205       -8.2886819858
 H        -3.1108031586        5.7971060024       -8.7228623680
 H        -2.1223498978        7.3561799845       -8.4363081242
 H        -3.8558299838        6.6273020674      -11.0941630520
 H        -2.6183575691        6.2168244539      -12.2531016753
 H        -2.5759265348        7.7748256103      -11.6176591463
 H         3.0963062732        4.1566441361       -9.2905871327
 H         4.2720039092        5.0135555936       -8.2829962265
 H         4.8232845089        4.2900878911       -9.7128948199
 H         5.4993158622        6.7928943445       -9.4031328896
 H         4.3651024966        7.8347602619       -8.3829786661
 H         4.6123878562        8.0120911458      -10.1989309685
 H         4.6108989411        0.9027256072      -13.9348176659
 H         6.1502489410        1.2531232363      -14.6608596178
 H         4.8892930512        0.6977016422      -15.7590774846
 H         4.8848282112        4.6017603729      -15.7295040402
 H         5.0992144841        3.4778196027      -17.0941892665
 H         6.3673435067        3.5570787742      -15.7610152727
 H        -3.4150934934        2.3165250135      -16.2340974540
 H        -3.1739724443        3.4829849512      -14.8766183794
 H        -2.3383915184        1.9799058773      -14.8595642652
 H        -1.3120093348        1.8646192311      -17.7309856949
 H        -0.3996666504        3.2472969712      -18.2416494743
 H        -2.2135643240        3.3543157932      -18.2659444496
 H        -1.8348689874       10.2055557868      -17.0169242660
 H        -0.2199293751       10.1185590854      -17.4831034768
 H        -0.7767698798       11.4996583201      -16.5041500135
 H         1.1667886647        9.1431536492      -13.9784599464
 H         0.7686326711       10.7230844626      -13.9312400202
 H         1.6795540954       10.1641984872      -15.3357770253
 Na       -0.9692300142        6.0809703974      -13.6178808497
 Na       -4.1485090184       -5.5778618546       -7.9348643310
