232

 C        -2.2417349356       10.8701709727      -14.5132820569
 C        -1.5356670340        9.5597945403      -14.6267853877
 O        -1.9998252713        8.5945641449      -13.9404309667
 C        -0.2860815759        9.5257650455      -15.4793982147
 C        -0.2549125048        8.0032947257      -15.7698707985
 O         0.4892777225        7.2325570858      -15.1231256102
 C        -1.1177304597        7.5285951092      -16.9580724801
 C        -1.1516541719        6.0389226488      -17.2903322526
 C        -1.6769937347        5.0947974230      -16.1857108948
 O        -2.4442587428        5.4429846666      -15.2815383132
 C        -1.4948383723        3.5008663505      -16.3782673221
 C        -0.2016573183        3.0690345777      -15.6719885626
 O         0.1768877349        3.6687425352      -14.6470311009
 C         0.5658653674        1.7283066750      -16.0312123146
 C         1.9823708809        1.7386491911      -15.4556109290
 C         2.9449870866        2.8464840609      -15.8937827718
 O         2.6768093776        3.8066883216      -16.5849988560
 C         4.3192907017        2.7395457004      -15.1585527189
 C         3.9756987637        3.0888958153      -13.6449218480
 O         3.9975415764        2.2776375047      -12.7970373588
 C         3.7576005627        4.6238768398      -13.5133013970
 C         3.1187391657        4.9031302528      -12.1924247316
 C         3.9547368408        5.9736488817      -11.3825615059
 O         4.6947536372        6.7576014865      -11.8598629529
 C         3.6142159791        6.0547589780       -9.7703778478
 C         2.0727356822        6.5231584622       -9.7779627931
 O         1.1324885687        5.6769336179       -9.7752714171
 C         1.7591822149        7.9888656232       -9.7488082865
 C         0.1968252944        8.2303086835       -9.8575518117
 C        -0.5265844567        7.1598397655      -10.7414609848
 O        -0.0217035586        7.0288028685      -11.8472186686
 C        -1.8954027771        6.5093700420      -10.3670774680
 C        -1.5869172164        4.9202465705      -10.6259374557
 O        -1.3959791914        4.4645768025      -11.7359522324
 C        -1.6406226150        3.9551376246       -9.3455823325
 C        -1.1866377343        2.5293000158       -9.6739510951
 C        -2.3965090903        1.6282710827       -9.9493770025
 O        -3.4786455561        2.1757105427       -9.8708287911
 C        -2.3483203503        0.0816442172      -10.1675583980
 C        -2.6715396293       -0.7260961514       -8.7465014887
 O        -1.8178351782       -1.5066934495       -8.3703193973
 C        -3.9871966292       -0.4631727196       -8.1675159321
 C        -4.0902613433       -1.1306433006       -6.6869831361
 C        -3.7735545285       -2.6568660409       -6.6248983197
 O        -4.6446828176       -3.3445225857       -7.1378324351
 C        -2.6392622662       -3.2174763785       -5.7969800517
 C        -1.7131663439       -4.0616085395       -6.6983803391
 O        -2.2588989988       -4.8602559090       -7.4264775683
 C        -0.1543148351       -3.8002506364       -6.6519881017
 C         0.6261289846       -4.6082001749       -7.7741658604
 C         0.4389650969       -6.1105346621       -7.5705461699
 O        -0.2262434182       -6.5151381224       -6.6367223893
 C         0.9794344558       -7.0144712553       -8.7355236615
 C        -0.1674678455       -7.9254566268       -9.2468368618
 O        -0.6144453828       -7.7843149762      -10.3709585474
 C        -0.7075322774       -9.0156824136       -8.3363613135
 C        -2.0600100195       -9.5081152973       -8.8239728668
 C        -3.1005381941       -8.3263012072       -9.0830770632
 O        -3.0847095629       -7.3973225482       -8.2679759850
 C        -4.1925374074       -8.5278336313      -10.2226624150
 C        -5.3967824196       -7.6422211383       -9.7935744197
 O        -5.4895292410       -6.4396461493      -10.1375813191
 C        -6.5296957125       -8.2303274122       -9.0128994365
 C        -7.3635574326       -7.2774661935       -8.1529392604
 C        -6.7819675928       -7.0102853405       -6.7336640274
 O        -5.8871975199       -6.2109682525       -6.5610737038
 C        -7.2420549422       -7.7833577479       -5.5335682625
 C        -7.4089650209       -9.3738438520       -5.7343050974
 O        -6.4696413423      -10.1246256057       -5.6821611123
 C        -8.8093333651       -9.9680264050       -6.1839684351
 C        -8.6896109629      -11.1828928961       -7.1656916504
 C        -9.0033648672      -10.8948104926       -8.7249217657
 O        -8.1209292985      -10.8063161915       -9.5372632804
 C       -10.5219687432      -11.0404037661       -9.1450522885
 C       -11.4678144509      -10.1537872370       -8.3530107541
 O       -11.4315768868       -8.9357927920       -8.5303840529
 C       -12.4661699478      -10.7868017223       -7.3378356865
 C       -13.6317096242       -9.7806328106       -7.0349246400
 C       -13.9300645043       -9.7484407219       -5.5378923400
 O       -13.1445564258      -10.1730281974       -4.7338429992
 C       -15.1791677496       -8.9590031366       -4.9399042434
 C       -14.4326996771       -7.7073984548       -4.2315550208
 O       -14.0574403764       -6.8135078972       -4.9705980352
 C       -14.1121747110       -7.6964099176       -2.7408922228
 C       -16.0966375059       -8.4817639859       -6.0853413499
 C       -15.8982033851       -9.8619086353       -3.9079596158
 C       -10.6324312958      -10.6725245395      -10.6347910228
 C       -10.8206651128      -12.5693455351       -9.1503793369
 C        -6.2150849834       -7.5667895883       -4.3981603690
 C        -8.6104312366       -7.1643009347       -5.1541947394
 C        -3.4993826650       -8.0211114892      -11.5523397287
 C        -4.6279891363      -10.0863190245      -10.3747222712
 C         1.3531405124       -6.2562089826       -9.9428247709
 C         2.0905970575       -7.9575490698       -8.1495835149
 C        -1.7937908942       -2.2505155247       -5.0261473296
 C        -3.2334333804       -4.3871230611       -4.7848726151
 C        -3.5567437758       -0.2584812647      -11.0462322186
 C        -1.0383339258       -0.5455679721      -10.7753125957
 C        -2.2390028472        6.8314411067       -8.8670730372
 C        -3.0380472205        6.8806203075      -11.3777557471
 C         3.7531929366        4.6508284627       -9.1272637721
 C         4.6327774628        7.0462792336       -9.1698533852
 C         4.8962512148        1.3104085085      -14.9552363911
 C         5.4192477300        3.6101638451      -15.8464290872
 C        -2.5663084217        2.7283965318      -15.5396429991
 C        -1.5110444536        3.0621136945      -17.8435585409
 C        -0.4478681820       10.3626640864      -16.7463503418
 C         0.9496015080        9.9245433536      -14.5438232211
 H        -2.7395320006       11.2759913777      -15.4033836407
 H        -1.4951720119       11.6341145474      -14.2459541876
 H        -2.9406337092       10.8880317142      -13.6600665472
 H        -0.6612982841        8.1322701708      -17.7568151457
 H        -2.1570724237        7.9470398699      -16.7790873555
 H        -0.1201434353        5.7117526440      -17.5400190393
 H        -1.6495033935        5.6835302821      -18.2603614517
 H         0.5027860559        1.6638508505      -17.1098163591
 H        -0.0359120805        0.9524792571      -15.5467580230
 H         2.4278746714        0.7866440784      -15.7448991822
 H         1.9090313799        1.7996229084      -14.3658850361
 H         3.0604729325        4.9215030313      -14.3246825154
 H         4.7127338402        5.1394183310      -13.7557169234
 H         3.0388157316        4.0109303647      -11.6351545850
 H         2.1290371660        5.2235296891      -12.3295953918
 H         2.1822545667        8.6054323169      -10.5620375606
 H         2.2354522485        8.3205327256       -8.7943688787
 H        -0.0664257211        9.2774751998      -10.2398418487
 H        -0.1796039757        8.2648740596       -8.8993287282
 H        -2.4836406952        4.1298097130       -8.7288572154
 H        -0.8292281688        4.4362146157       -8.7770272013
 H        -0.5293449755        2.2027304913       -8.7730726754
 H        -0.5104748416        2.6707280810      -10.5157022233
 H        -4.8248219313       -0.9049087834       -8.8186465149
 H        -4.2371132261        0.5361844597       -8.1990751562
 H        -5.0042031145       -0.8462673148       -6.1989461649
 H        -3.2562734504       -0.5706367365       -6.0960451629
 H         0.3073681655       -3.9829832855       -5.6697942956
 H         0.0841637143       -2.7453950713       -6.8188272555
 H         1.6022901850       -4.2667695415       -7.9796067015
 H         0.1835008586       -4.3358534009       -8.7642306506
 H        -0.8068041005       -8.6726858119       -7.3394884356
 H        -0.0091232488       -9.8105087065       -8.3613871946
 H        -2.4814609624      -10.1876411251       -8.2038228239
 H        -1.9116532765      -10.0504094225       -9.7499140758
 H        -6.2272859415       -9.0314193452       -8.3607936101
 H        -7.2603212579       -8.6223606775       -9.6989482733
 H        -8.3350726238       -7.6923972379       -8.1178276680
 H        -7.5162025759       -6.3768786350       -8.6546899281
 H        -9.5331722724       -9.2434167073       -6.5872125028
 H        -9.3102613775      -10.2282302515       -5.2127796363
 H        -9.4140600724      -11.9771573893       -6.8703761273
 H        -7.6953173896      -11.6524725410       -7.1608642559
 H       -11.8603298234      -10.8385737922       -6.3574189345
 H       -12.6647738041      -11.7723598611       -7.6805716154
 H       -14.4966169938      -10.1236858885       -7.5241196734
 H       -13.4025125459       -8.8312995190       -7.5247558002
 H       -15.0589379875       -7.5509807243       -2.2048620134
 H       -13.5227957835       -6.8028682049       -2.4610822554
 H       -13.6533345111       -8.5331371053       -2.2111738029
 H       -16.3829488059       -7.4502636134       -5.8588901956
 H       -17.0647380649       -8.9228619933       -6.0785390282
 H       -15.6384506096       -8.6088830178       -7.0446900045
 H       -16.4066345831       -9.2467530565       -3.0540983894
 H       -15.1556071493      -10.5478890518       -3.4916125657
 H       -16.6341394111      -10.3749235104       -4.5083075317
 H       -10.6894601228       -9.5835517238      -10.8547169060
 H       -11.5463175885      -11.0766739108      -11.0303862460
 H        -9.7664326893      -10.9902128189      -11.1848639523
 H       -10.7285425756      -12.8883504634       -8.0828242026
 H        -9.8829427520      -12.9077606814       -9.4972272491
 H       -11.6460405680      -12.8513047485       -9.7519798903
 H        -5.2424179215       -8.0029260672       -4.5239018415
 H        -6.6465552551       -7.9237290081       -3.4496530451
 H        -6.1698898971       -6.4969906625       -4.2222186206
 H        -8.4487238726       -6.1037602397       -4.8937084314
 H        -9.0566657014       -7.7286204213       -4.3047760249
 H        -9.2722454080       -7.2155872574       -5.9871739159
 H        -2.7210408421       -8.7537173841      -11.8291838631
 H        -3.1394061969       -6.9517877623      -11.4113298667
 H        -4.3490542005       -7.9969831074      -12.1984036945
 H        -3.8959699234      -10.8073578122      -10.5818183726
 H        -5.3578030050      -10.1316198446      -11.2542349176
 H        -4.9928327759      -10.3201819623       -9.3832466758
 H         2.1876812336       -5.5746013213       -9.6059825135
 H         0.5001204217       -5.6193032810      -10.2261184139
 H         1.7844905966       -6.9422548783      -10.6657955369
 H         1.6771960746       -8.4385872084       -7.3122961802
 H         2.8733227309       -7.3611474988       -7.7374072719
 H         2.5247173855       -8.6770179776       -8.8228657258
 H        -1.0967692670       -2.7981928823       -4.4480733776
 H        -2.3863272797       -1.6521623317       -4.3592676744
 H        -1.2787841486       -1.5883966002       -5.7609277197
 H        -3.8665489943       -3.9644341551       -3.9646357738
 H        -2.2936855708       -4.9084628780       -4.4266740352
 H        -3.8162758153       -5.0399785584       -5.5036698010
 H        -4.3390888524        0.3979390031      -10.7499935867
 H        -3.8295641568       -1.2570590244      -10.9254056972
 H        -3.2080859446       -0.1565817626      -12.0651078934
 H        -0.1896005496       -0.0450222989      -10.2496800935
 H        -1.0304325433       -0.3367403824      -11.8342763968
 H        -1.0039095002       -1.6360406881      -10.6985122644
 H        -1.5432784184        6.4033611783       -8.1029493405
 H        -3.1743736775        6.2927086159       -8.8531854635
 H        -2.3099241375        7.9025644435       -8.6739066248
 H        -3.9248090398        6.3286881167      -11.0134354027
 H        -2.7687944763        6.6427013159      -12.4245404465
 H        -3.3029078444        7.9181242573      -11.3525495798
 H         3.2881023369        3.6763606698       -9.5246722079
 H         3.5954596407        4.7239364601       -8.0375163890
 H         4.8137993181        4.4697645676       -9.1690850143
 H         5.5203146122        6.8443768013       -9.6971847946
 H         4.9369221584        6.8786426335       -8.0807273695
 H         4.3414635965        8.0050586938       -9.4647981468
 H         5.9709217293        1.4987344414      -14.8427478283
 H         4.7037947064        0.8610222384      -15.9560184520
 H         4.4641550447        0.6814051884      -14.1146682021
 H         4.9306276232        4.5465068971      -16.2629504997
 H         5.9992420446        3.0019911101      -16.6185364559
 H         6.1974487941        4.0608671114      -15.1213570029
 H        -3.5648694142        2.9583690957      -15.9274010506
 H        -2.5098177088        3.0805172127      -14.5104874930
 H        -2.2741157197        1.7249080986      -15.5073595146
 H        -1.8090400511        2.0291572793      -17.8123311789
 H        -0.6710171187        3.3351322821      -18.5145627005
 H        -2.4706416881        3.4039545025      -18.3018729046
 H        -1.2433237351       10.0677431953      -17.3674945032
 H         0.4207602222       10.2431988693      -17.3471493125
 H        -0.6472890132       11.3856290559      -16.5579093829
 H         1.0125068606        9.6017641847      -13.4813181312
 H         0.9395800647       10.9994266089      -14.3668668739
 H         1.8106341936        9.7794996254      -15.1348323628
 Na       -0.7761662338        5.6297639563      -13.6965278369
 Na       -4.2960897921       -5.3850231331       -8.0755204298
