232

 C       -16.4504526422      -13.8168841944       -0.5836749430
 C       -15.9725116760      -13.9683864789       -1.9417940051
 O       -16.0867502881      -13.0301283225       -2.6862807182
 C       -15.3372395409      -15.3396299769       -2.2607018873
 C       -14.8157187094      -15.3364569900       -3.7327075133
 O       -15.6054826381      -14.8917330140       -4.5673848928
 C       -13.3857389437      -15.7340434338       -4.0836067888
 C       -13.1624132574      -15.7021638339       -5.5850627644
 C       -13.7468297025      -14.3333663575       -6.2101980076
 O       -13.5571687452      -13.3183582468       -5.5162117984
 C       -14.4567280598      -14.1638798675       -7.6069689707
 C       -15.3071959670      -12.8732623049       -7.4780875430
 O       -16.4481654948      -12.9541364701       -7.1213446334
 C       -14.5568657620      -11.4533443415       -7.7729574276
 C       -15.4147455650      -10.1902576692       -7.7375200643
 C       -15.6233522759       -9.6107919195       -6.3238073124
 O       -15.6766332099      -10.2562219029       -5.2523662479
 C       -15.7405161847       -8.0855207875       -6.2197786716
 C       -14.2290586060       -7.2811325049       -5.9371816508
 O       -13.3095415035       -8.0782079918       -5.8062285658
 C       -14.1402974508       -5.7590360862       -5.6453091458
 C       -13.4351176498       -5.1321873459       -6.8177492018
 C       -13.0441455539       -3.6599420005       -6.4880929046
 O       -13.2602934609       -3.1852458949       -5.3995300800
 C       -12.2874834662       -2.8601326361       -7.5826263047
 C       -10.7828612173       -3.1470093946       -7.2600837379
 O       -10.5031282686       -4.2999742041       -7.3593450354
 C        -9.8273410779       -1.9925422286       -7.2003245388
 C       -10.0653938916       -0.9974069808       -5.9920904433
 C        -9.9368557243        0.4866957211       -6.4757367056
 O       -10.4194633636        0.7551860653       -7.5223018438
 C        -9.3303199648        1.6277125307       -5.4479337181
 C        -7.9683378731        1.9739583747       -6.0669784866
 O        -6.9723237189        1.4591803891       -5.5656218895
 C        -7.8541082456        2.6832998008       -7.5477001436
 C        -6.4528491892        2.2976616536       -8.0403261286
 C        -5.7096526808        3.4887134137       -8.6244667521
 O        -5.2547849480        4.2634749706       -7.8491898636
 C        -5.4785447867        3.6380449135      -10.2225129319
 C        -4.3897523933        2.3914617425      -10.3943086577
 O        -4.8128535937        1.2839270306      -10.5981748731
 C        -2.9249990464        2.8339631489      -10.2549676924
 C        -2.0497657546        1.7580136620       -9.6180490077
 C        -0.5704998062        2.0327231135       -9.8588743694
 O        -0.2236168145        2.5207303344      -10.8709864705
 C         0.5310481525        1.6400569728       -8.7579333886
 C         1.8371845655        1.9077854409       -9.4729847411
 O         2.4608052923        1.0751129540      -10.0645275822
 C         2.4911451364        3.2556165531       -9.1682309197
 C         3.2764507412        3.8749668108      -10.2452914402
 C         2.7088708288        5.1816268177      -10.6915785062
 O         1.6403596771        5.6699444012      -10.3505396639
 C         3.7031120618        6.0723202978      -11.6391959999
 C         4.0256479498        5.0302042821      -12.7979281955
 O         4.9701235302        4.2462344327      -12.7046991446
 C         2.8718811284        4.7981065901      -13.7563782317
 C         3.0620769422        5.6172815798      -15.1900370201
 C         3.6446338656        4.7035438117      -16.3408657905
 O         4.0328135984        3.5436684209      -16.2029158822
 C         3.5240649180        5.1734559463      -17.8254321762
 C         5.2178860417        5.2167113230      -18.4485430044
 O         5.7235360506        4.2807700268      -19.0181294177
 C         5.9389856316        6.4627484540      -18.0506046050
 C         7.4060706720        6.1587645372      -17.7156752399
 C         7.5791051103        4.8098496871      -16.9575030054
 O         6.9069159314        4.6212037671      -15.9401597674
 C         8.7484226893        3.8129151390      -17.2795987544
 C         9.9013144158        4.0573764639      -16.2226330903
 O         9.7457220739        4.6852680517      -15.1925161069
 C        11.2710116776        3.4793212789      -16.5705127926
 C        12.2076292305        3.0860053559      -15.3687304487
 C        11.7538964087        1.8598239504      -14.7109454790
 O        11.0473920003        1.0574986103      -15.3078963185
 C        12.0947276313        1.5534193118      -13.2144252565
 C        11.0268241487        0.5880130136      -12.5459060293
 O        11.2116016617       -0.5735796248      -12.1798356337
 C         9.5447551348        1.1810503785      -12.5782327329
 C         8.5767481906        0.0332163959      -13.0133002869
 C         7.2081068943        0.6350613828      -13.3684937620
 O         7.0790259750        1.8210683275      -13.5768054104
 C         5.9340377329       -0.2990877442      -13.5154035569
 C         5.3005147803        0.0216856963      -14.9130218920
 O         4.6200635787        1.0310186624      -15.0547774586
 C         5.2769548697       -1.0546956740      -15.9782199457
 C         6.2950296131       -1.8033216964      -13.4937014849
 C         5.0237827550        0.2039068347      -12.3971585124
 C        13.3865566484        0.7582462366      -13.2792943692
 C        12.1718793278        2.8146344118      -12.3391482043
 C         8.1584208190        2.4178516001      -17.1116946482
 C         9.2326392103        4.0646643221      -18.7369595442
 C         2.8706152889        4.1669958838      -18.7376389924
 C         2.8565711981        6.5366368148      -17.9463944175
 C         2.8889168830        7.3011569001      -12.1644291148
 C         5.0041388332        6.2706054786      -10.9124073314
 C         0.2332957325        2.3593414708       -7.4213764251
 C         0.3143452555        0.1002352963       -8.6000800434
 C        -6.8088940840        3.3403486149      -11.0128542678
 C        -5.0183377385        5.0737043324      -10.5157888126
 C       -10.3409052636        2.7233495686       -5.5498363608
 C        -9.1801606578        1.1815627926       -4.0185943527
 C       -12.4642114955       -3.4416955953       -9.0635355887
 C       -12.8834862974       -1.4164512111       -7.5344804566
 C       -16.2072364964       -7.3395784885       -7.5111834871
 C       -16.6364009724       -7.7544358332       -5.0268599542
 C       -13.3570384855      -13.9819873552       -8.6974543249
 C       -15.2435017930      -15.4891117667       -7.9044329712
 C       -14.2539536938      -15.7278851168       -1.2586483583
 C       -16.5667830958      -16.4228344353       -2.2552513968
 H       -16.4462066023      -12.7708805626       -0.3439024952
 H       -15.7351916497      -14.2791905837        0.1010794942
 H       -17.3831912520      -14.3608366093       -0.4728845791
 H       -13.0647639012      -16.7515470272       -3.7038204513
 H       -12.7413217420      -15.0585682530       -3.5566294592
 H       -13.5364691798      -16.5472532319       -6.1942743996
 H       -12.1094090969      -15.5214020222       -5.7865334953
 H       -14.0421938833      -11.4853127180       -8.7696345090
 H       -13.8239505932      -11.3137041079       -6.9646241798
 H       -16.4315341282      -10.5209924332       -8.1377277448
 H       -14.9884405928       -9.3557623315       -8.3384564720
 H       -13.5443707168       -5.5442490141       -4.7569993149
 H       -15.1659115202       -5.3371352869       -5.4294800357
 H       -14.0211403953       -5.2922554043       -7.6912594072
 H       -12.4909366499       -5.6752859117       -6.9327464804
 H        -9.9689803566       -1.4010990872       -8.0917069100
 H        -8.8111855774       -2.4473697185       -7.1216631319
 H        -9.3552576426       -1.2503813884       -5.1968088493
 H       -11.0046929269       -0.9542563950       -5.4380152335
 H        -7.8952015888        3.7938887463       -7.5875835511
 H        -8.7093891158        2.2908336647       -8.0682294714
 H        -6.4937226985        1.4613826781       -8.8256590092
 H        -5.8453725762        1.9838328636       -7.1268503715
 H        -2.9538418064        3.7747963129       -9.6334631822
 H        -2.4261082975        3.2329414168      -11.1510315697
 H        -2.3191853020        0.7447489144       -9.9966728831
 H        -2.2979492069        1.7646814559       -8.4982018083
 H         3.1459251080        2.9168258996       -8.3142925215
 H         1.7629346959        4.0155680533       -8.7427427048
 H         3.5078309398        3.2720232146      -11.0558134817
 H         4.2724715498        4.1904318297       -9.8444129793
 H         1.9089840733        4.9543253756      -13.2580669974
 H         2.9450771749        3.7384614396      -14.0028831716
 H         3.7760362425        6.3634420103      -15.0053516186
 H         2.2396508682        6.1814539810      -15.5157214237
 H         5.5267818820        6.9714097710      -17.1628372693
 H         6.0348480975        7.2582066349      -18.7692213966
 H         7.8027972895        6.9162226633      -16.9784850441
 H         7.9624033614        6.1821573261      -18.5992308930
 H        11.9194312943        4.2167478157      -17.2023752665
 H        11.1200999480        2.5489203886      -17.1593286376
 H        12.3514541424        3.9503118879      -14.7010637859
 H        13.1124219598        2.8053134778      -15.8544930678
 H         9.3494204222        1.9860345408      -13.3598699829
 H         9.3310626314        1.6161312959      -11.5798179406
 H         8.4758881402       -0.5874273292      -12.1548547934
 H         9.0524454153       -0.4747819989      -13.8909367606
 H         6.0483177362       -1.0129129048      -16.7286203249
 H         4.3355558846       -1.0951292052      -16.4529349279
 H         5.3723511111       -1.9489642113      -15.4672129552
 H         5.4056518832       -2.4531119959      -13.6207300799
 H         6.7783333576       -2.2270850324      -12.5689196587
 H         7.0540768432       -1.9499067774      -14.3055119863
 H         5.2043835481       -0.3241215460      -11.4425407007
 H         3.9747417101        0.1125563852      -12.5376784024
 H         5.0655069559        1.2575261278      -12.2374619669
 H        14.0997933630        1.2766974963      -13.9430379052
 H        13.3652338425       -0.2368971674      -13.6572838414
 H        13.8400323733        0.6470464518      -12.3174790147
 H        12.9988668209        3.4413714294      -12.6523392637
 H        12.1625739282        2.4613840181      -11.3129034151
 H        11.3222290109        3.4731520870      -12.3821263461
 H         7.7994113271        2.5007725524      -16.1043908023
 H         9.0128224727        1.6425222044      -17.3218347105
 H         7.2528402392        2.4332118726      -17.7357560510
 H         9.5855557929        5.1351858172      -18.9317769059
 H         8.5379835442        3.6815452855      -19.5057552229
 H        10.1096783493        3.4455646979      -18.7723921606
 H         2.2295044148        3.3893622173      -18.2977394807
 H         3.6740490352        3.4910978668      -19.2246343142
 H         2.2052047612        4.7030709655      -19.3539564773
 H         2.8545814913        6.8792517537      -18.9711603253
 H         3.3600515254        7.2195195369      -17.3121850748
 H         1.8192733475        6.4763223499      -17.7357345380
 H         3.2156402268        8.1819200021      -11.5706308737
 H         1.7934029022        7.1096372288      -11.9612744982
 H         3.1474189682        7.4120974176      -13.1750701758
 H         5.6590431317        6.8516668599      -11.4557500116
 H         5.4713246480        5.3292513678      -10.6049178259
 H         4.7903928646        6.7112030662       -9.8902463415
 H         0.0442909942        1.7056641604       -6.6311858174
 H        -0.6197725326        3.0030046016       -7.5676675170
 H         1.1101822800        2.9274706388       -7.1509499528
 H        -0.7153515656       -0.1240772560       -8.3485084489
 H         0.9122117735       -0.4138046033       -7.8123960400
 H         0.6074215625       -0.4983700711       -9.4968491693
 H        -7.0956946903        2.3137647840      -11.1310444986
 H        -6.5557668261        3.7343256819      -11.9500650188
 H        -7.6649289793        3.8955705037      -10.6651768710
 H        -4.7393899741        5.1216394124      -11.5609552650
 H        -4.1425620133        5.3597033219       -9.8528359075
 H        -5.8576892722        5.7337894090      -10.3190534572
 H       -11.2666224105        2.4464699203       -4.9637965793
 H       -10.6388751785        2.9764901778       -6.5941551011
 H        -9.9615843121        3.6205158846       -5.0929607607
 H        -8.8529291675        2.1263603945       -3.5527454311
 H        -8.4616636010        0.3817277730       -3.7232365172
 H       -10.0615174910        0.7073085972       -3.5547690204
 H       -11.9701953904       -2.8342143996       -9.7534396136
 H       -13.5309868716       -3.5805005380       -9.3202234926
 H       -12.1005925171       -4.4496811087       -9.1622497422
 H       -13.8785155011       -1.4278685566       -7.8467542286
 H       -12.3852649813       -0.6774979174       -8.0822904603
 H       -12.7540966621       -1.1353244132       -6.5100202623
 H       -15.3814548336       -7.1359358007       -8.1081609115
 H       -16.5792930146       -6.4197747006       -7.0793040309
 H       -17.0610839425       -7.8732970444       -7.9837028730
 H       -16.2669020381       -8.0627713463       -4.0143082362
 H       -17.6024141009       -8.0742908242       -5.1599952967
 H       -16.6570351738       -6.6499354583       -4.8709300022
 H       -12.8595772946      -13.0573923415       -8.4068676993
 H       -13.7830370944      -13.8239826590       -9.6535982705
 H       -12.6241560401      -14.7923063063       -8.5295137256
 H       -16.0446292316      -15.5544645275       -7.2453314771
 H       -14.6502302876      -16.3484127456       -7.9103402778
 H       -15.5693617083      -15.3775830745       -8.9303920080
 H       -13.5344560198      -14.8557389077       -1.1700321972
 H       -13.5888991901      -16.4793068038       -1.7835515091
 H       -14.6130391574      -16.0992043030       -0.3161093870
 H       -17.0514349285      -16.4598975661       -3.2036531070
 H       -17.2649959100      -16.2606582866       -1.4332167423
 H       -16.0651437486      -17.3898918365       -2.0723194937
 Na      -15.8254115777      -12.4868032243       -4.8820979627
 Na        5.5308225980        3.1412852208      -14.4729824282
