232

 C       -20.9016866878       -7.2155205083       -1.7247357927
 C       -20.6563875583       -5.9843601895       -2.5357069343
 O       -20.3843663972       -4.9488130481       -1.9715634037
 C       -21.0800904665       -5.9439736733       -4.0688939581
 C       -19.8787973246       -5.2374523782       -4.9124760303
 O       -19.8254026883       -3.9976772375       -4.8831609783
 C       -18.9143434712       -6.0137199240       -5.8201634761
 C       -17.8419084816       -5.0985337870       -6.3755477747
 C       -17.2035597807       -4.2725865796       -5.1878711825
 O       -17.1187737255       -4.7930725510       -4.0683261358
 C       -16.6755682164       -2.7455939298       -5.3904226726
 C       -16.6322449613       -2.2692241755       -3.8898790503
 O       -17.5669061192       -1.7031698290       -3.3717789168
 C       -15.2157330168       -2.3068317948       -3.2260746539
 C       -15.3347099580       -1.7893938335       -1.7645079467
 C       -15.9578132043       -2.7522784200       -0.7606448926
 O       -17.0900828594       -3.2126051014       -0.8359066349
 C       -15.0902111614       -3.2980661162        0.3377051757
 C       -14.0333306542       -4.3282851824       -0.1893916020
 O       -12.9784787981       -4.4409140527        0.4538678083
 C       -14.4395773040       -5.5236489711       -1.1956144638
 C       -13.3111100695       -6.4562604387       -1.6456351893
 C       -13.2027369336       -6.5850223453       -3.1422797981
 O       -13.9378901097       -5.9830753740       -3.8909470134
 C       -12.0285737666       -7.4738859423       -3.7532374535
 C       -10.7067530821       -6.8871299432       -3.2234495617
 O       -10.6126084583       -6.2642501069       -2.1879079636
 C        -9.4415813931       -6.9762377248       -4.0867296525
 C        -8.2068054758       -6.4252385431       -3.2850613487
 C        -7.7773646783       -5.0898978957       -4.0526686385
 O        -8.4384632235       -4.7109390300       -4.9815506579
 C        -6.4954767803       -4.2561430699       -3.5304639923
 C        -5.2039526171       -5.0778251771       -3.2038253209
 O        -4.8465387974       -5.2203171660       -2.0636287282
 C        -4.5580735367       -5.7579647517       -4.4248911092
 C        -3.0501484112       -6.0125485542       -4.2709779314
 C        -2.1947047467       -4.7347928267       -4.3976964757
 O        -2.6003755614       -3.6005673012       -4.5970189009
 C        -0.5688642691       -5.0281100326       -4.3885947866
 C        -0.0719163898       -5.3862839500       -5.8610217898
 O         0.1012967166       -6.5397971781       -6.2018008648
 C        -0.0108702087       -4.2541118500       -6.8476164425
 C         0.0823098752       -4.6994036007       -8.4182417939
 C         0.8405255922       -3.7706187385       -9.3343739564
 O         1.3709103569       -2.7510776466       -8.8938652060
 C         0.8922248945       -3.9851691692      -10.8865893787
 C         1.5173456749       -2.7382533630      -11.6968904686
 O         0.8251038067       -2.0552236779      -12.4079495657
 C         3.1126152312       -2.4323115340      -11.5491811599
 C         3.8083573770       -2.6336839293      -12.8673917823
 C         4.9569525441       -1.4653286899      -13.1836911167
 O         5.4341616848       -0.8259135037      -12.2758408075
 C         5.4423253962       -1.2836504371      -14.6038196081
 C         5.5236986654        0.2917624773      -14.9622343082
 O         4.9554190184        0.6260923728      -16.0175672281
 C         5.8724436911        1.3845899381      -13.9358198182
 C         7.4414525891        1.6872430261      -13.6823079469
 C         7.9037927104        2.4585366189      -14.8748451166
 O         8.0704373672        1.9089275640      -15.9006487970
 C         8.2959956003        4.1018903250      -14.7140169861
 C         6.8509220075        4.9288965447      -14.6080918604
 O         5.9705472821        4.5030181166      -13.9123619673
 C         6.6744652935        6.2886415087      -15.3832409404
 C         5.2841015513        6.1594550197      -16.1064752840
 C         5.2765990104        5.0081983587      -17.1282799081
 O         6.1704388890        4.1385263545      -17.0913034843
 C         4.3595822133        5.0634752665      -18.3799080193
 C         5.2859134320        5.9560591338      -19.3459268285
 O         5.1388987809        7.1519335886      -19.4929066160
 C         6.1133344806        5.0910271321      -20.3605244408
 C         7.3407635510        5.8756529243      -20.7671768549
 C         7.9247873009        5.5579164426      -22.1856890424
 O         7.1614133121        5.4817196672      -23.1471882552
 C         9.4579107243        5.1071366372      -22.3081060435
 C         9.5394298344        3.5330946367      -21.9589777074
 O         8.9804379813        2.7920725319      -22.7083742490
 C        10.0885968609        3.0339515445      -20.6016529950
 C         9.9046110409        1.5388578029      -20.3199278921
 C         8.4110332860        1.3165811426      -20.1335792744
 O         7.8332370881        2.0911356749      -19.3724050782
 C         7.7533514260       -0.0729083425      -20.7143925297
 C         6.1499979754        0.2715798552      -20.7667189060
 O         5.5582995169        0.4381677712      -19.7298384168
 C         5.4951001425        0.5550592451      -22.1667560690
 C         8.2361838056       -0.5237596384      -22.0440667470
 C         8.0317860439       -1.2275786482      -19.7592978462
 C         9.8798136840        5.0802387438      -23.8869886036
 C        10.5404094993        5.9176446508      -21.5317693642
 C         4.1043948627        3.6870883286      -19.0175334627
 C         3.0404395695        5.8141301326      -18.1658947311
 C         9.0627403138        4.4489303047      -13.4509413638
 C         8.8903278206        4.4365109008      -16.0450739852
 C         6.8940298257       -1.9346333184      -14.6192362117
 C         4.3947399541       -1.9160573640      -15.5838314197
 C         1.8260337815       -5.1462767148      -11.2669811861
 C        -0.5084563222       -4.3070133675      -11.4502253813
 C         0.2317573921       -3.7957387606       -3.9029339796
 C        -0.2472870598       -6.2667262337       -3.4677861317
 C        -5.9930220219       -3.1188970016       -4.4702142072
 C        -7.0865673505       -3.6307487279       -2.1774263836
 C       -12.0917267284       -8.9813384384       -3.2248890673
 C       -12.1181889837       -7.5600044021       -5.3055429680
 C       -14.3186373292       -2.1725794855        1.1157013871
 C       -15.8801408575       -3.9755620233        1.4654941368
 C       -15.3779094546       -2.9418862681       -6.0909376019
 C       -17.6275082081       -1.8746879158       -6.2055196128
 C       -21.6032544190       -7.3540738085       -4.6429303305
 C       -22.3310790583       -5.0240238819       -4.1603750791
 H       -21.6699461295       -6.8262679522       -1.0192009199
 H       -19.9775519322       -7.4969341369       -1.1444759251
 H       -21.2127594763       -8.0433059367       -2.3132270808
 H       -19.5564748936       -6.5407288233       -6.5662572473
 H       -18.5505092847       -6.8322650387       -5.2156038433
 H       -18.3166072027       -4.4804267378       -7.1335255862
 H       -17.0705756439       -5.6857371594       -6.9184174849
 H       -14.6837146376       -1.6180413923       -3.7961966286
 H       -14.7525929235       -3.3193777753       -3.2724827419
 H       -15.8804431097       -0.8847510269       -1.7481018391
 H       -14.3120061170       -1.5058960508       -1.2970660855
 H       -14.9635982768       -5.1550907285       -2.0840732209
 H       -15.1991437898       -6.0774658762       -0.6294579269
 H       -13.3702357535       -7.5326649688       -1.2701463733
 H       -12.3842981084       -6.1109238201       -1.2219520933
 H        -9.6621771902       -6.3057894619       -4.9125933096
 H        -9.1141016302       -7.8639716395       -4.5437991291
 H        -7.4072883478       -7.1629892436       -3.4200311673
 H        -8.4383147738       -6.2142589533       -2.2019753104
 H        -4.6708809417       -5.2000268965       -5.3421130917
 H        -5.0160837631       -6.7532559570       -4.5751497284
 H        -2.6293313382       -6.6343194446       -5.0055230205
 H        -2.8519357078       -6.4819866081       -3.3233453200
 H         0.8819664222       -3.6074674003       -6.5279818123
 H        -0.7776698895       -3.5506503093       -6.7160770269
 H        -0.9626637967       -4.5198417888       -8.8315669931
 H         0.2798621797       -5.7572070822       -8.5284830004
 H         3.5692974109       -2.9709710873      -10.7157758189
 H         3.2424044965       -1.4367683491      -11.1626074881
 H         3.1109187171       -2.4140672248      -13.6826409181
 H         4.2961563307       -3.5694519009      -12.9958366982
 H         5.4895002730        1.2628833382      -12.8949432776
 H         5.4411523871        2.3639545040      -14.1270086502
 H         7.9836825318        0.7475474331      -13.6717565557
 H         7.6357253043        2.1198782234      -12.7189784931
 H         7.3579383867        6.6094273668      -16.1090710647
 H         6.6601033379        6.9859029847      -14.6364163897
 H         5.0049454148        7.0586591492      -16.5832914555
 H         4.5702848752        5.8669517853      -15.3899952521
 H         5.6361275545        4.9165193416      -21.3561728365
 H         6.4242762942        4.1495248095      -19.9777899283
 H         8.2802775456        5.8005220332      -20.1693140451
 H         7.1480680103        6.9103048466      -20.8696390582
 H         9.5176067371        3.6812117453      -19.9065206930
 H        11.1342742706        3.4183791369      -20.5289491446
 H        10.3482711534        1.3645922380      -19.2837155006
 H        10.3485270703        0.9689023552      -21.1043683545
 H         5.7922148913       -0.1329008334      -22.9706417843
 H         5.8935599621        1.4699891743      -22.5523818118
 H         4.3880259655        0.5481787873      -22.0309713527
 H         7.5439019573       -1.2050850333      -22.4978324675
 H         9.2385679302       -0.9017434886      -21.9375236454
 H         8.2834310048        0.1643515206      -22.8272014646
 H         7.9253575541       -2.2215917375      -20.2889747243
 H         7.4178854516       -1.1138985469      -18.8555388646
 H         9.1009840906       -1.0969652942      -19.3810864177
 H        10.8460545203        4.6505064674      -23.8405577103
 H         9.8288599625        5.9817299519      -24.4768210170
 H         9.2550952719        4.3334095387      -24.4274719617
 H        11.5702059443        5.6416474976      -21.8831982595
 H        10.5405368168        5.6976360183      -20.4322519708
 H        10.2722798379        6.9652720876      -21.4342233222
 H         3.4270287773        3.0581026715      -18.5423494552
 H         5.0640185818        3.1144333472      -19.2078308530
 H         3.6868815987        3.8193193742      -20.0070318069
 H         3.2561861108        6.8604392337      -17.9817736315
 H         2.3214756416        5.4165857430      -17.5149661471
 H         2.4932809082        5.8537488807      -19.1283953692
 H         9.2827912012        5.5241194371      -13.4190091120
 H        10.0243479698        3.8769925372      -13.4551180387
 H         8.4594580389        4.1115437812      -12.6274200435
 H         9.7011793067        3.6712572840      -16.2762208358
 H         9.4480751440        5.4318966749      -15.9603071154
 H         8.1943466892        4.5372669681      -16.9236372920
 H         6.8586435961       -2.9610756409      -14.1383765015
 H         7.5460835347       -1.3137407937      -14.0413630486
 H         7.1023227096       -2.2489023686      -15.6957039025
 H         4.3844757188       -2.9932675020      -15.5604283555
 H         4.6624537036       -1.5425984742      -16.6296977416
 H         3.3861369424       -1.6861922986      -15.2246468495
 H         1.4049301422       -6.0055134576      -10.7613411294
 H         2.8505036338       -5.0148893139      -10.8513928655
 H         1.8330142514       -5.4083046969      -12.2966480267
 H        -1.3606077066       -3.6559526398      -11.3552740803
 H        -0.7994563650       -5.3333105039      -11.1279147161
 H        -0.3368109472       -4.3950434682      -12.4971153750
 H        -0.0983017056       -3.6728124473       -2.8640670356
 H        -0.0039243640       -2.9573708669       -4.5968494179
 H         1.3175539704       -4.0468291275       -3.8745519230
 H        -0.2650929241       -7.1467606533       -4.0777244769
 H        -1.1136201304       -6.3085497402       -2.7988042554
 H         0.7199743109       -6.1737820205       -2.9494406285
 H        -5.8125696921       -3.6702747261       -5.4441529197
 H        -5.1217850801       -2.5841846587       -4.0462623779
 H        -6.8341791039       -2.4200501562       -4.7021086372
 H        -7.5638737452       -2.6828982376       -2.3211590267
 H        -6.2909393438       -3.6338736150       -1.4203425459
 H        -7.8848473314       -4.3840688155       -1.9047926122
 H       -13.0409128586       -9.4668653010       -3.6156534435
 H       -12.1168572688       -8.9727677120       -2.1249016478
 H       -11.3486578828       -9.6946290869       -3.4723740374
 H       -13.1033707567       -7.6609958506       -5.5425499246
 H       -11.7685693573       -8.5170063725       -5.6773889421
 H       -11.6303571865       -6.7024619203       -5.7701263582
 H       -13.8072426140       -2.5621164052        2.0128835508
 H       -14.9508372740       -1.3942157482        1.4279070123
 H       -13.6187862735       -1.8063469607        0.4573424810
 H       -15.1223703552       -4.3592066461        2.2097482676
 H       -16.5435503675       -4.7990714171        1.1082249161
 H       -16.5807111269       -3.3011403493        2.0404163007
 H       -15.3933128122       -3.7745868859       -6.7555377223
 H       -14.4949267569       -3.0505108892       -5.5067556627
 H       -15.1473129969       -1.9850223628       -6.6396277963
 H       -18.6647286980       -1.9391861788       -5.8179336854
 H       -17.7009114788       -2.1894555684       -7.2713827110
 H       -17.0313427258       -0.9527689015       -6.3267036269
 H       -20.7964963855       -8.1220103479       -4.6176864570
 H       -21.9882720289       -7.1747835700       -5.6019889161
 H       -22.4508645976       -7.7168603325       -3.9297812972
 H       -23.2924135432       -5.5296373658       -3.8676120616
 H       -22.3658310152       -4.6658435723       -5.1468462307
 H       -22.1982542488       -4.1560681372       -3.4193936497
 Na      -18.9192099091       -3.4115915671       -2.6613467409
 Na        6.3642065935        1.8086923461      -17.5739360073
