232

 C        -2.2353940665       10.9765307208      -14.5800900487
 C        -1.5809007258        9.5135902439      -14.5230634917
 O        -2.0697156831        8.5597331106      -13.9848300239
 C        -0.1997119529        9.4517679538      -15.5244992430
 C        -0.0689064666        7.8991164187      -15.8589344478
 O         0.4605564870        7.0771217351      -15.1430198615
 C        -1.0525589155        7.5022620707      -16.9752048099
 C        -1.1406144084        6.0280115162      -17.3319776931
 C        -1.7177410083        5.0838666421      -16.3134796836
 O        -2.2642975414        5.5717190813      -15.3306796086
 C        -1.5323203613        3.4568924512      -16.4125272042
 C        -0.1279639973        2.9627485227      -15.7189644449
 O         0.2656018684        3.5875760771      -14.7446389920
 C         0.6627828934        1.7300914188      -16.1387849874
 C         1.9777687948        1.7905350090      -15.4696506312
 C         2.9134409504        2.9303326084      -15.8627315626
 O         2.5767581158        3.8543984228      -16.5877717094
 C         4.3347846900        2.7281178605      -15.1471553459
 C         4.0893686956        3.1815033226      -13.6623984220
 O         3.9100438454        2.4014914435      -12.7486136396
 C         3.7535054040        4.6424878882      -13.4004554317
 C         3.0721817890        4.9442399286      -12.0004604512
 C         3.9476038646        5.8866807242      -11.3172296647
 O         4.8109947875        6.5947458848      -11.8027401580
 C         3.6764817001        6.0716353089       -9.7945525455
 C         2.1295688483        6.4379590501       -9.7352428902
 O         1.2530311902        5.6073950622       -9.7663136633
 C         1.7553048678        7.9263796168       -9.8784242634
 C         0.2090756385        8.2218067715       -9.8694480655
 C        -0.6048289284        7.2556171604      -10.7876640344
 O        -0.2559368810        7.1186469761      -11.9399628027
 C        -1.9161889154        6.4320245125      -10.3224967255
 C        -1.5251592359        4.9555302136      -10.5696391553
 O        -1.4036123902        4.4527915510      -11.6872735080
 C        -1.5469031376        3.9881972326       -9.3958527239
 C        -1.1663732137        2.5322712604       -9.6470682808
 C        -2.3962482915        1.6701357909       -9.8208965088
 O        -3.5773930682        2.0707307546       -9.7546117297
 C        -2.2207147254        0.0917552399      -10.0991017861
 C        -2.5529162616       -0.6998596630       -8.8086784027
 O        -1.7660332774       -1.4951687361       -8.2873462028
 C        -3.9409889205       -0.5552630022       -8.1738077896
 C        -3.8834173467       -1.0677252640       -6.6537673078
 C        -3.7316106920       -2.5853888729       -6.5977086771
 O        -4.5725700664       -3.2573910770       -7.3127415921
 C        -2.5876464490       -3.1868781370       -5.7291821721
 C        -1.7415176338       -4.0100359787       -6.7599214644
 O        -2.1969910867       -4.8695735878       -7.4628602800
 C        -0.2428435827       -3.7747933269       -6.8140138009
 C         0.4652980464       -4.6251716114       -7.8299454690
 C         0.3166973083       -6.0923702875       -7.5597181345
 O        -0.1924017223       -6.5981482953       -6.5687652692
 C         0.9373232561       -6.9735096334       -8.6760984423
 C        -0.2813336627       -7.9674197952       -9.2037321345
 O        -0.6108199668       -7.8059823642      -10.3710326132
 C        -0.9144188538       -9.0827834577       -8.3292072179
 C        -2.1738475141       -9.5667213866       -8.8915192426
 C        -3.1927577966       -8.4088157285       -9.1109572714
 O        -3.1490936749       -7.4941249717       -8.3810446387
 C        -4.2583142915       -8.4847794079      -10.2622977119
 C        -5.4487989796       -7.5627515326       -9.8159487032
 O        -5.4112549093       -6.4008566958      -10.0397554898
 C        -6.5332037536       -8.2759894383       -8.9349504506
 C        -7.4306728723       -7.3202787504       -8.1531408832
 C        -6.7214024938       -7.0203131078       -6.7604636623
 O        -5.8584016129       -6.1534621917       -6.7416649554
 C        -7.2599231702       -7.7754729969       -5.4980194086
 C        -7.4899230062       -9.3355157671       -5.8561827815
 O        -6.6095129465      -10.0987451851       -5.6882853653
 C        -8.8784275554       -9.8825454764       -6.2069216689
 C        -8.8026539476      -11.0507701891       -7.1360488005
 C        -9.0052906403      -10.9791690576       -8.6549409852
 O        -8.0631108461      -10.8301057936       -9.3865165403
 C       -10.4482940707      -11.2047921389       -9.1850596021
 C       -11.4545139788      -10.3066268078       -8.3478844560
 O       -11.4004349881       -9.0636046381       -8.4618954906
 C       -12.4767193824      -10.8296597254       -7.2972089404
 C       -13.5826576820       -9.8525117100       -6.9511206850
 C       -13.9341588996       -9.7280333850       -5.4417609965
 O       -13.2414488394      -10.3459070655       -4.6468360647
 C       -15.1534068720       -8.9227295822       -4.8983892746
 C       -14.5131866602       -7.5688453103       -4.2090331879
 O       -14.1327814351       -6.6766418633       -4.9099671355
 C       -14.2010242383       -7.6051601162       -2.7478242617
 C       -16.1505873728       -8.5392996892       -5.9645485907
 C       -15.7115002606      -10.0259718726       -3.8287641929
 C       -10.5014210069      -10.6665689444      -10.7776554599
 C       -10.8665763121      -12.7122728187       -9.1531367389
 C        -6.1990169240       -7.4423433325       -4.4412492823
 C        -8.5994407999       -7.0122216036       -5.0549203689
 C        -3.5104417237       -7.9967007499      -11.6038206769
 C        -4.6110985143       -9.9563089788      -10.3773178696
 C         1.5139474901       -6.1695507976       -9.9688088061
 C         2.0866673940       -7.9356065912       -8.1915381317
 C        -1.7304724851       -2.2214530649       -4.8460700649
 C        -3.4261019820       -4.1526028504       -4.7314668255
 C        -3.4339846879       -0.3711441941      -11.0444051479
 C        -0.8271125962       -0.3046715209      -10.6884260284
 C        -2.3829369275        6.8032627016       -8.8957743184
 C        -3.0055886042        6.8586845455      -11.2518603574
 C         3.7181687559        4.6466783988       -9.0887493785
 C         4.5621733675        7.0075851374       -9.0628343903
 C         4.7674908188        1.1653848299      -15.2017825107
 C         5.3956198922        3.6070610210      -15.9101933152
 C        -2.6405408259        2.8457489363      -15.5371197929
 C        -1.5583631791        3.0129484600      -17.8823874511
 C        -0.3506906538       10.3213119173      -16.6900597824
 C         0.9183610424        9.9022332479      -14.6165739280
 H        -2.4468679192       11.2511092563      -15.5966372525
 H        -1.6098353616       11.8468878716      -14.2098678950
 H        -3.1853381910       11.0561891596      -14.0404034730
 H        -0.8951324891        8.1269164503      -17.8023881356
 H        -2.1077326177        7.7975636616      -16.5187844380
 H        -0.2771434548        5.6290892901      -17.8570440115
 H        -1.8865927479        5.9017952667      -18.1554332898
 H         0.7314798934        1.9057860626      -17.2101064480
 H         0.0247899729        0.8639322680      -15.8441230361
 H         2.4590398839        0.8603974092      -15.7306130078
 H         1.8431125978        1.8657225939      -14.3576981401
 H         3.1125243658        4.9259497746      -14.2899534177
 H         4.6704888231        5.2013180669      -13.5398372239
 H         2.8750470263        4.0772375782      -11.3422937681
 H         2.0860676681        5.4465842502      -12.0976994712
 H         2.0690821358        8.2933474059      -10.8497702252
 H         2.2672689608        8.5778776062       -9.1574744924
 H         0.0151774510        9.3019139132      -10.0552640888
 H        -0.0810620161        8.0957560768       -8.8171342802
 H        -2.6095301138        4.0653738463       -9.2312328982
 H        -1.2214418194        4.4071975481       -8.5178181337
 H        -0.6194338598        2.2008369030       -8.7687407049
 H        -0.4864873171        2.4620253690      -10.5403986645
 H        -4.6648326105       -1.2334484651       -8.6276639728
 H        -4.5153178493        0.4294460603       -8.2508288521
 H        -4.7309563387       -0.6407051345       -6.1628861771
 H        -2.9704749737       -0.5868870675       -6.1259949069
 H         0.2082474075       -3.9439253990       -5.8774878478
 H         0.0424446527       -2.7326901613       -7.0351928419
 H         1.5795481322       -4.4625474619       -7.7892636965
 H         0.3336479499       -4.2826236463       -8.8130174979
 H        -1.1805095722       -8.6929991795       -7.3289999498
 H        -0.1342368386       -9.9320749566       -8.2084847364
 H        -2.5879850336      -10.3735754166       -8.3021722108
 H        -2.0215440898      -10.0717453286       -9.9111852077
 H        -5.9622632859       -8.7902522147       -8.2071265185
 H        -7.1329635697       -9.0420970311       -9.5386060682
 H        -8.4865799969       -7.5539638961       -8.0382406777
 H        -7.4029691466       -6.4166664100       -8.7226381497
 H        -9.6909030089       -9.1344121052       -6.4941691970
 H        -9.2362894142      -10.2069445558       -5.1735521229
 H        -9.5118115358      -11.8133977460       -6.8004501766
 H        -7.8290591958      -11.5086102963       -7.0656532673
 H       -11.8667429131      -10.9977488474       -6.3829231525
 H       -12.7513979249      -11.7946542598       -7.6998196445
 H       -14.4623654684      -10.2384716593       -7.4434245012
 H       -13.3083401416       -8.9361275414       -7.4938847608
 H       -15.0849118999       -7.5661817927       -2.0961602403
 H       -13.6532813157       -6.7517008421       -2.5220804252
 H       -13.6298452663       -8.4798639150       -2.3273488195
 H       -16.6837299508       -7.6441414013       -5.6820332508
 H       -16.9629322273       -9.2322026834       -5.9893238141
 H       -15.7171096854       -8.5136926624       -6.9050536751
 H       -16.1449778927       -9.5150323829       -2.9696721925
 H       -14.8071630939      -10.5290376189       -3.5011377275
 H       -16.4704632021      -10.7078662213       -4.3218019248
 H        -9.6677894616      -10.0584570932      -11.0848264302
 H       -11.4024142426      -10.2113934868      -11.0583608025
 H       -10.2611983019      -11.5630761806      -11.4593923769
 H       -10.9409103343      -12.9076111775       -8.1037326847
 H       -10.0132164262      -13.3353450122       -9.4467960466
 H       -11.6902633590      -12.8106424351       -9.7694851055
 H        -5.3620211188       -8.1326864018       -4.4215621665
 H        -6.6078096189       -7.4706469895       -3.4384724339
 H        -5.8870951692       -6.4623424568       -4.6349439628
 H        -8.3078624255       -5.9901451700       -5.2143613882
 H        -8.8535226140       -7.1637504990       -4.0060560464
 H        -9.3865043143       -7.1607900684       -5.7155542814
 H        -2.5465016440       -8.4528271123      -11.6346778478
 H        -3.4907475707       -6.9264213762      -11.5242048978
 H        -4.1975276991       -8.2573206366      -12.3995839775
 H        -3.7280721612      -10.4817306822      -10.7532023015
 H        -5.3132578005      -10.2026548243      -11.0995367264
 H        -4.7013016215      -10.2889522065       -9.3263094961
 H         2.2868770876       -5.5392962396       -9.5702437284
 H         0.7099181233       -5.4634408102      -10.3248237818
 H         2.0384146288       -6.8525963179      -10.6481488642
 H         1.8034115387       -8.4271020708       -7.2740471301
 H         2.9572019201       -7.3352972976       -7.9418974327
 H         2.3715143535       -8.5971223691       -8.9226244241
 H        -0.9506083032       -2.7826702415       -4.3506829446
 H        -2.3731443570       -1.6868454433       -4.1057037389
 H        -1.3262515181       -1.4650857418       -5.4961323307
 H        -4.2114287868       -3.5163928420       -4.2910455954
 H        -2.7830783651       -4.5980605963       -3.9504245923
 H        -3.9524971846       -4.8085659709       -5.4287354776
 H        -4.2933313278        0.2310143886      -10.7653374149
 H        -3.6594349106       -1.3902712887      -10.8647838050
 H        -3.0675513019       -0.2689499262      -12.0921734110
 H        -0.1044532958       -0.0592483112       -9.9171672856
 H        -0.5855574064        0.1523598756      -11.6624633706
 H        -0.8659762539       -1.3749238313      -10.8781948645
 H        -1.7205127955        6.2955088825       -8.1015114058
 H        -3.3861709703        6.4661882090       -8.8738028432
 H        -2.3017111083        7.9069641566       -8.7644563155
 H        -3.9393167214        6.3775383110      -10.9022286705
 H        -2.8258948878        6.8037464891      -12.2878465935
 H        -3.1889693682        7.8613167487      -10.9795179799
 H         2.9102687144        3.9475410181       -9.3430736178
 H         3.7131945724        4.8056729491       -7.9834999554
 H         4.6230632350        4.0787762719       -9.3179884622
 H         5.5637915146        6.4443345814       -9.1956014056
 H         4.4139533175        6.9927075514       -8.0194844114
 H         4.6671356821        7.9791242431       -9.5863162479
 H         5.8434333069        1.2478126196      -15.2510951591
 H         4.3758351939        0.6772935466      -16.1576940525
 H         4.5024594231        0.6314680469      -14.2954761088
 H         5.1206021551        4.7032322611      -15.9131784400
 H         5.5423577726        3.1638142017      -16.8966809851
 H         6.4424230488        3.6229894445      -15.4201344248
 H        -3.5407531955        3.5038181778      -15.5529946490
 H        -2.3366530170        2.7627825845      -14.5554691418
 H        -2.7823282203        1.8458074628      -15.8703999899
 H        -1.5554242963        1.9052541569      -18.1195598030
 H        -0.8972207011        3.6385258599      -18.4200804183
 H        -2.5628450815        3.2536799094      -18.2683833413
 H        -1.3131189709       10.2214444083      -17.2293342267
 H         0.4255840357       10.1033010032      -17.4066610655
 H        -0.2972980049       11.3590885613      -16.4350070728
 H         0.9456612478        9.4337909587      -13.6382809339
 H         0.7719734543       10.9555807615      -14.3023144276
 H         1.8218661603        9.8874844595      -15.1371685247
 Na       -0.6491852901        5.7021400342      -13.7414333140
 Na       -4.3507650974       -5.3446586499       -8.2234796381
