232

 C        -2.2319250632       10.9473827238      -14.5627024532
 C        -1.5707164069        9.5669107447      -14.6232689857
 O        -2.0436487614        8.5316760056      -14.1049683653
 C        -0.2300576293        9.2700750011      -15.4767408278
 C        -0.1925069647        7.8595192174      -15.9951261351
 O         0.5547449075        7.0344305059      -15.4129030537
 C        -1.0281147905        7.4015820530      -17.1175343665
 C        -0.9449479348        5.9083306223      -17.5135947890
 C        -1.5859304003        5.0455680074      -16.4043636929
 O        -1.9875380875        5.6335231489      -15.3803224653
 C        -1.5504265476        3.5602354396      -16.4910935364
 C        -0.2903444630        3.1919725303      -15.7479105315
 O         0.1576968500        3.7856739009      -14.7688126803
 C         0.5943256435        2.0877512827      -16.4620830508
 C         1.8130558041        1.6128416314      -15.6718562603
 C         2.8221828290        2.7508358516      -15.8522741490
 O         2.5103479413        3.7556314905      -16.4323386525
 C         4.3001620898        2.6313784645      -15.2214139062
 C         4.0224034143        3.1884376725      -13.7673019784
 O         3.9132572452        2.4014927844      -12.8985564595
 C         3.7419107806        4.6856191439      -13.4942083018
 C         3.1765109315        4.9175420221      -12.1665377177
 C         4.0832831570        5.8348006089      -11.1277137258
 O         5.0952968233        6.3733752910      -11.4272842194
 C         3.5557417838        5.9210788531       -9.6548583724
 C         2.0904522735        6.3852010231       -9.7420506301
 O         1.1371643844        5.5879445231       -9.5958792140
 C         1.7885149756        7.7693130466      -10.1371660181
 C         0.1848068573        7.9897978752       -9.7369186636
 C        -0.6974227137        7.3185071683      -10.7959951708
 O        -0.3916432852        7.4495044833      -11.9846400144
 C        -1.9398399305        6.4625710865      -10.3316394325
 C        -1.5553432219        4.9298209788      -10.4989170737
 O        -1.2265147624        4.5131699682      -11.5883985271
 C        -1.6161027395        4.0381761016       -9.3399265172
 C        -1.2840574846        2.5858688481       -9.7297578727
 C        -2.5417988478        1.6353131428       -9.7272216487
 O        -3.6430857083        1.9815776876       -9.4105194493
 C        -2.0997781271        0.1010139795      -10.1184756832
 C        -2.4103473031       -0.6709244765       -8.7638938323
 O        -1.5084188154       -1.2640585818       -8.2137912818
 C        -3.7353150851       -0.4282066258       -8.1556464058
 C        -3.7336252315       -0.8261773528       -6.6215480498
 C        -3.6543919672       -2.3404136597       -6.6678835479
 O        -4.2084248080       -2.9079943398       -7.5178306065
 C        -2.7184752242       -3.1853931027       -5.6278778640
 C        -1.7722210249       -4.0132233746       -6.6171102435
 O        -2.3651824024       -4.6932459561       -7.4463448955
 C        -0.2695733230       -3.8122617424       -6.7337791747
 C         0.3971769955       -4.6343415343       -7.8222624445
 C         0.4074960467       -6.1478788202       -7.6170707462
 O         0.0168742068       -6.5915416939       -6.5582190278
 C         0.9618590639       -7.0963179866       -8.7644508385
 C        -0.2498537976       -7.9325737407       -9.3340342977
 O        -0.7048612792       -7.8690758931      -10.4663752697
 C        -0.8933654237       -8.9183965719       -8.2651539031
 C        -2.1890134431       -9.5786284058       -8.9969617599
 C        -3.2490741800       -8.4627405630       -9.1725272378
 O        -3.2588895402       -7.4743973901       -8.3922670526
 C        -4.3329708714       -8.5050198758      -10.3446145324
 C        -5.4878673177       -7.7009478203       -9.7774901756
 O        -5.4334737102       -6.4692817324      -10.0223609917
 C        -6.5918354484       -8.3675512006       -8.9516714706
 C        -7.4205548477       -7.3084046809       -8.1774058332
 C        -6.8118028728       -6.9665328116       -6.8468105242
 O        -5.8807465081       -6.2045027641       -6.8648432344
 C        -7.4060048781       -7.6483923139       -5.5201942277
 C        -7.6541256638       -9.0650303961       -5.9751754658
 O        -6.7047145056       -9.8194059273       -5.7796624280
 C        -8.9924931251       -9.5378966624       -6.4596566312
 C        -8.9954711993      -11.0776935404       -6.8032247040
 C        -9.0984497047      -11.1522100938       -8.3379236443
 O        -8.1276886957      -10.8361665003       -9.0061814349
 C       -10.4709973230      -11.3591339013       -9.0706961171
 C       -11.3655427295      -10.3734330569       -8.3777649354
 O       -11.2591526213       -9.1808363446       -8.4533397002
 C       -12.4517223957      -10.9535073431       -7.4230175018
 C       -13.4975577650       -9.8300191031       -6.8916315708
 C       -13.7541190855       -9.9410101675       -5.3794290208
 O       -13.0320037445      -10.5714362528       -4.6598933619
 C       -14.9877636951       -9.1108843243       -4.7062647801
 C       -14.4904867578       -7.7059943777       -4.1985578201
 O       -14.5221367252       -6.7049603358       -4.9061242471
 C       -14.3590068265       -7.4809504484       -2.7167294406
 C       -16.0822184687       -8.7586468394       -5.7236064389
 C       -15.7054300734       -9.8141911870       -3.4699199559
 C       -10.3348172262      -10.8623435503      -10.5309793057
 C       -10.8694832456      -12.8558663185       -9.1034636297
 C        -6.2834146438       -7.6158202686       -4.5043198976
 C        -8.6343165087       -6.7523793313       -5.0429793321
 C        -3.7600060153       -7.8430610042      -11.6695919579
 C        -4.8790452453       -9.9919226297      -10.7167940225
 C         1.5490463643       -6.3330332825      -10.0023326824
 C         1.9662823447       -8.0163084148       -7.9549479639
 C        -1.8431003312       -2.2139376650       -4.7229972635
 C        -3.7002633414       -4.0871093180       -4.7638726294
 C        -2.9010594075       -0.4369094630      -11.3108563302
 C        -0.5359728463       -0.0723886031      -10.4423233526
 C        -2.2531244797        6.7282919001       -8.8638675879
 C        -3.1629825741        6.8419866010      -11.3824966888
 C         3.7608677318        4.6042140306       -8.8966265438
 C         4.4663896731        7.0661991891       -8.8414997839
 C         4.9147017742        1.2188654505      -15.3730546553
 C         5.2617813645        3.7179010471      -15.9769087696
 C        -2.7435117748        2.9388818347      -15.6191480603
 C        -1.7353627135        2.9508485023      -17.9367621340
 C        -0.1075435881       10.1770452516      -16.8220759069
 C         0.9258550777        9.5268657622      -14.5570879514
 H        -2.3884772952       11.4028276259      -15.5549751894
 H        -1.6819294947       11.6902482619      -14.0708413137
 H        -3.2233004550       10.8979934841      -14.1224408321
 H        -0.6940554218        8.0104181789      -18.0117377233
 H        -1.9950969883        7.6559879284      -16.8819604417
 H         0.1008131630        5.5861888147      -17.4312069368
 H        -1.1374189539        5.8155537637      -18.5594294839
 H         0.9808565534        2.6335825497      -17.3538942238
 H        -0.1531707608        1.3337417270      -16.6668901221
 H         2.1818749076        0.7196206827      -16.2152893011
 H         1.6959385868        1.4053355052      -14.6235345432
 H         3.0980633504        4.8865963614      -14.3271986120
 H         4.6399713208        5.3093171020      -13.6485838185
 H         2.7725095324        3.9971951178      -11.6637497484
 H         2.2676383137        5.5353086463      -12.4254706910
 H         1.9371677188        7.7920616888      -11.2284270609
 H         2.3632838648        8.6256357707       -9.7834449818
 H        -0.0338660032        9.0631252312       -9.7885193569
 H         0.1674887218        7.7840980664       -8.6906376007
 H        -2.5263255354        4.2599762011       -8.7319608001
 H        -0.8483505105        4.5323386474       -8.6212264217
 H        -0.5354496870        2.3320065730       -8.9705879139
 H        -0.8151494065        2.5776018245      -10.6729507015
 H        -4.5741228405       -0.9651680386       -8.6761164408
 H        -4.0446069338        0.5619682101       -8.1862865110
 H        -4.6662719961       -0.5181336109       -6.1172930160
 H        -2.8741616661       -0.3401202400       -6.1406359826
 H         0.1924207845       -4.1897524302       -5.7652133101
 H        -0.0440338298       -2.7500886338       -6.7904660775
 H         1.3917591518       -4.3989203176       -8.1151635520
 H        -0.0996168242       -4.3637308724       -8.8231800267
 H        -1.1540439358       -8.4265115896       -7.2729405439
 H        -0.1552868998       -9.6610944160       -8.0750524574
 H        -2.6410264338      -10.4222632402       -8.4231418881
 H        -2.0079491839      -10.0424799577       -9.9645899334
 H        -6.1304014753       -9.0752562474       -8.1715405927
 H        -7.1619078368       -8.8619527759       -9.7100268711
 H        -8.5243760115       -7.4990726799       -8.0243033439
 H        -7.3772202688       -6.4065668816       -8.8988818831
 H        -9.4365235392       -8.8937634048       -7.1647374079
 H        -9.5844388950       -9.4243471693       -5.5782374378
 H        -9.8402574334      -11.5424025076       -6.3122712912
 H        -8.0767008052      -11.5556561598       -6.4378840194
 H       -11.9185402977      -11.3957896935       -6.5992131779
 H       -12.9505198943      -11.8041975304       -7.9127185882
 H       -14.4211343660       -9.9997857762       -7.5180681568
 H       -13.0810129309       -8.8114250073       -7.1197278349
 H       -15.2670076482       -7.6429825734       -2.1645850402
 H       -13.9585785254       -6.4716162633       -2.4261991708
 H       -13.7535451972       -8.1930530215       -2.2341342217
 H       -17.0874271659       -8.6375237557       -5.2955165045
 H       -16.2111754102       -9.3471608692       -6.6450172975
 H       -15.6507654144       -7.8035422502       -6.1237562286
 H       -16.6973629822       -9.3253509533       -3.4156171150
 H       -15.1046630198       -9.7153734086       -2.5935800234
 H       -15.9096016584      -10.7807557982       -3.7358062796
 H       -10.1747303165      -11.7251488981      -11.2152736111
 H        -9.6407181991       -9.9860475357      -10.6848070778
 H       -11.2468693683      -10.4841036020      -10.9110038658
 H       -10.6009088653      -13.3370187769       -8.1392517509
 H       -10.2915564725      -13.3409300715       -9.8488907941
 H       -11.9012090056      -12.7276335362       -9.4659162333
 H        -5.6205838344       -8.4523790182       -4.6968138654
 H        -6.5695040114       -7.8193035322       -3.4650552740
 H        -5.7218385307       -6.6600417629       -4.7436046901
 H        -8.3465893167       -5.6862947569       -4.9945088705
 H        -8.8212191495       -7.1192835905       -4.0325772326
 H        -9.4624304890       -6.7873070389       -5.8118053366
 H        -2.7170156484       -7.9963419055      -11.4483595584
 H        -4.0214200574       -6.7830922259      -11.6992744823
 H        -4.0735774812       -8.3739677430      -12.5150121777
 H        -4.3124022287      -10.4854056324      -11.4711297467
 H        -5.8608729973       -9.8176014499      -11.3043863160
 H        -4.9847111568      -10.5598278060       -9.8246628791
 H         2.3439164624       -5.6241743787       -9.7922442987
 H         0.7637355829       -5.8870961266      -10.4946793222
 H         1.9637846702       -7.1259933570      -10.5471798551
 H         1.3725847167       -8.3991057554       -7.1115200972
 H         2.8395087266       -7.4785185404       -7.5427421322
 H         2.3518428744       -8.9005957785       -8.5932757333
 H        -1.3084116990       -2.8046906794       -3.9687411164
 H        -2.5075395284       -1.5196608495       -4.2492970151
 H        -1.1719445224       -1.5319215932       -5.3052972992
 H        -4.4464430471       -3.4585087340       -4.3652949479
 H        -3.1506599529       -4.4099545949       -3.9294263805
 H        -4.2767414707       -4.7047789121       -5.4175907618
 H        -3.9547567125       -0.5313705131      -10.9652336864
 H        -2.5039592080       -1.4845005289      -11.3537420495
 H        -2.7431051820        0.1273690111      -12.2383136418
 H        -0.0160532661        0.0358297570       -9.4927574618
 H        -0.1348580589        0.5998224917      -11.1668443451
 H        -0.4456775533       -1.0840620228      -10.8181431877
 H        -1.3201041000        6.6418903833       -8.3912431481
 H        -3.0185083338        6.0383883800       -8.4299551268
 H        -2.6248614176        7.7537292696       -8.8758400000
 H        -4.0619202269        6.2814919362      -11.2879639250
 H        -2.6733563013        6.7677804550      -12.3707594399
 H        -3.4810754124        7.8831683509      -11.2191414450
 H         2.8896977742        3.9849791035       -8.6684591914
 H         4.1768486329        4.8068111679       -7.9603378543
 H         4.3968194200        3.9425409485       -9.4395780141
 H         4.9721821919        6.7418272387       -7.9933458332
 H         3.6658386080        7.8389901377       -8.4455193024
 H         5.1079883912        7.5176321562       -9.5851802061
 H         5.8299039894        1.1197119990      -14.8133527480
 H         5.0819593036        1.1073865612      -16.3861465187
 H         4.2417717325        0.5217468372      -14.8811572976
 H         5.4844194992        4.5134591891      -15.3848536796
 H         4.9156525101        3.9793639968      -16.9264197714
 H         6.2093775823        3.3238718657      -16.1208183609
 H        -3.2950114070        3.8385475761      -15.4017574617
 H        -2.3713496152        2.6728541344      -14.5613879259
 H        -3.2916553818        2.0750494786      -16.0244649096
 H        -1.7608679852        1.9199498017      -17.8826981079
 H        -0.8776939184        3.3235939441      -18.5320756359
 H        -2.6768419952        3.2804100895      -18.4080395605
 H        -1.0247042858       10.2969164805      -17.4125336179
 H         0.7398307959        9.8800649467      -17.5159674225
 H         0.1622380095       11.2407548406      -16.5267913165
 H         1.0987309946        8.6473600662      -13.8745858835
 H         0.7147439577       10.3668466195      -13.8696523917
 H         1.8794117243        9.7609525451      -15.0930088941
 Na       -0.5174899305        5.6917818137      -13.5807060337
 Na       -4.3389372521       -5.2921884889       -8.3991046545
