232

 C        -2.1219576795       10.8383798811      -14.6301347039
 C        -1.5724124995        9.4442373460      -14.7653345023
 O        -2.0732588290        8.5306202327      -14.1119523341
 C        -0.1832714101        9.2610412759      -15.4914982064
 C        -0.1335719688        7.8109975360      -16.1040732849
 O         0.5292066277        6.9527165861      -15.5234608914
 C        -0.9880026059        7.4685950907      -17.3627128946
 C        -0.8046540361        5.9446709156      -17.4942711172
 C        -1.5978957593        5.1488304555      -16.4110905753
 O        -1.9977164492        5.6907125074      -15.3799401973
 C        -1.6670888182        3.5951966972      -16.5331890823
 C        -0.3158166741        3.2055961755      -15.8424472587
 O         0.0690676953        3.7517253737      -14.8006403723
 C         0.5467461779        2.0190874331      -16.5511603032
 C         1.8688453593        1.6555264719      -15.8816006285
 C         2.8393576134        2.7885818954      -15.9631558363
 O         2.4809394192        3.8589925352      -16.4628628150
 C         4.2929073942        2.6590084661      -15.2758912271
 C         4.0331182965        3.0525965141      -13.7561356884
 O         3.9235674486        2.2564497974      -12.8729838066
 C         3.8247282230        4.6762489730      -13.4213127814
 C         3.2870496742        5.0467461647      -12.0674118301
 C         4.1974883726        5.7311879051      -11.0616719515
 O         5.2317472767        6.2400674300      -11.3979303358
 C         3.4756602170        5.8573479552       -9.6133722973
 C         2.0162356061        6.2890254443       -9.7648733899
 O         1.1206350524        5.4750096373       -9.4316191068
 C         1.7099934974        7.7295932649      -10.2226229585
 C         0.1766864302        8.1268721156       -9.7395978596
 C        -0.6960723610        7.3789359188      -10.7522176575
 O        -0.4271104596        7.4645060274      -11.9430190437
 C        -1.8969666711        6.5413181558      -10.3884556320
 C        -1.4863636195        5.0164762139      -10.5978700747
 O        -1.1335781042        4.5071032347      -11.6427978164
 C        -1.6382968807        4.0745439354       -9.3252274316
 C        -1.2522924658        2.6685767238       -9.7462645927
 C        -2.3808525037        1.6888823914       -9.8350862422
 O        -3.5515309158        1.9480633157       -9.4787228126
 C        -1.9872014550        0.1957726699      -10.0947126317
 C        -2.3597450343       -0.4754306170       -8.6976993598
 O        -1.4771246065       -1.1558474749       -8.1700047945
 C        -3.6849945823       -0.2355795328       -8.1063133031
 C        -3.6955379714       -0.8782377023       -6.6005682233
 C        -3.6116348803       -2.3808173560       -6.7263729943
 O        -4.2377374610       -2.9678420327       -7.6199833414
 C        -2.7481426984       -3.1339268467       -5.6372610005
 C        -1.8198430714       -3.9576779389       -6.5880725353
 O        -2.3914721125       -4.7132228038       -7.3401156803
 C        -0.2842295560       -3.9824465544       -6.6044301187
 C         0.3151811571       -4.5944585572       -7.8668122385
 C         0.4370300622       -6.1050274678       -7.6420613619
 O         0.0970267890       -6.5729666778       -6.5776294921
 C         0.9114912864       -7.1330656820       -8.7427958998
 C        -0.2479262068       -7.9550148480       -9.2252013001
 O        -0.5339227888       -7.7558053100      -10.4047765576
 C        -0.9388170221       -8.9739225139       -8.3823447740
 C        -2.2110029182       -9.5441430898       -8.9872710269
 C        -3.3120893745       -8.4889960364       -9.2292889161
 O        -3.3055554341       -7.5555970791       -8.5104806254
 C        -4.3298863818       -8.5246314669      -10.3870088841
 C        -5.6317516930       -7.7018333856       -9.8462462722
 O        -5.6315540372       -6.4887365543      -10.0255312473
 C        -6.7229899723       -8.3147965596       -9.0591168555
 C        -7.5022374442       -7.2063157467       -8.2991881161
 C        -6.8235057472       -6.8342093445       -6.8428487237
 O        -5.8174552329       -6.1591214316       -6.7013199159
 C        -7.3535481563       -7.5350993676       -5.6255469817
 C        -7.6830121032       -9.1131744619       -5.9397224414
 O        -6.8202451615       -9.9032647912       -5.9754752188
 C        -9.1441975854       -9.4846173807       -6.3740905861
 C        -9.1323721798      -10.9882922567       -6.7052274326
 C        -9.0671415488      -11.1525543357       -8.2624204758
 O        -8.0135676508      -10.9260443692       -8.8011842861
 C       -10.4754838563      -11.4063108843       -8.9957693538
 C       -11.4493381388      -10.3852507921       -8.2051425221
 O       -11.2360769267       -9.1900644982       -8.4951074883
 C       -12.6578588235      -10.9396417243       -7.4045142276
 C       -13.5001029304       -9.7503284582       -6.7932457163
 C       -13.7576761378       -9.9469212664       -5.2722202013
 O       -12.9992876452      -10.6049805974       -4.6299374538
 C       -15.0435137712       -9.1505978537       -4.6594989224
 C       -14.6642752730       -7.6764723661       -4.1089325132
 O       -14.5309895013       -6.8328835576       -4.9494688827
 C       -14.2350062106       -7.3212362826       -2.6122533100
 C       -15.9977754464       -8.9677003515       -5.8698812152
 C       -15.5676623300       -9.9864281152       -3.4292692464
 C       -10.2629839248      -10.9510565446      -10.5019101730
 C       -10.9114876220      -12.9595898750       -8.9260806255
 C        -6.3135552188       -7.4795168590       -4.5034300722
 C        -8.6531895330       -6.6944964734       -5.1422739533
 C        -3.7939685480       -7.8157365725      -11.6454627453
 C        -4.8388939363       -9.9981178299      -10.8024816289
 C         1.5895565266       -6.4419308977       -9.9940696965
 C         1.8916799200       -8.0749838980       -7.9873657843
 C        -1.8745026034       -2.2363356166       -4.6635018175
 C        -3.6719148131       -4.0954438263       -4.9252066624
 C        -2.7302649607       -0.3605921756      -11.3395342862
 C        -0.4626107267       -0.0722722752      -10.3514382362
 C        -2.3761507474        6.8525531708       -8.9066387819
 C        -3.1185579750        6.7767672210      -11.2825583132
 C         3.7289928652        4.5415947303       -8.8567284997
 C         4.3234262592        7.0504789961       -8.8910294738
 C         4.9806791010        1.3106024270      -15.1945510579
 C         5.1800814744        3.7469701110      -16.1505825601
 C        -2.8280293105        2.9418909789      -15.5774769866
 C        -1.7927088362        2.9914894880      -17.9547205060
 C        -0.0392261032       10.2309558030      -16.7813713370
 C         0.9282487995        9.4087785303      -14.5136190875
 H        -2.2956832126       11.4668010545      -15.4667781414
 H        -1.3913297864       11.4191766704      -14.0387562519
 H        -3.0516723391       10.8078924691      -14.0837341556
 H        -0.6926825156        7.9474536712      -18.2601815955
 H        -2.1090457166        7.7037013077      -17.1451397318
 H         0.2492083959        5.6712109980      -17.3842701367
 H        -1.0417164838        5.6931656786      -18.5875021782
 H         0.7759831226        2.3441175907      -17.5417488002
 H        -0.1759679073        1.2138212074      -16.4508509944
 H         2.2445733999        0.7813112641      -16.3965783771
 H         1.8136824794        1.4332993949      -14.8086692152
 H         3.2192762196        4.9196914825      -14.2989039321
 H         4.8010641919        5.1776413719      -13.5902588837
 H         3.0371712087        4.1512579920      -11.5464763481
 H         2.3816987803        5.5738919474      -12.2030213219
 H         1.8903358782        7.8821104458      -11.3164240951
 H         2.3515672813        8.5148889254       -9.7776806358
 H         0.0149658975        9.2506544552       -9.6395003201
 H         0.1912756319        7.7738709419       -8.7744471169
 H        -2.6668960969        4.1658603739       -8.8976375604
 H        -1.0636165604        4.4875052571       -8.4538056914
 H        -0.4210356260        2.4039680212       -9.0137272791
 H        -0.8083129738        2.7203027918      -10.7278170383
 H        -4.3937446042       -0.8309283528       -8.7491369689
 H        -4.0772920558        0.7564729123       -8.0819705946
 H        -4.5388989634       -0.7376631192       -5.9699250676
 H        -2.7080907797       -0.4632654730       -6.0579822786
 H         0.1839300363       -4.5648934459       -5.7635379048
 H         0.0219366445       -2.9108663569       -6.4810714474
 H         1.3320277307       -4.3336720843       -8.1007107001
 H        -0.1731043235       -4.2611626555       -8.8066573726
 H        -1.1078888163       -8.4998592698       -7.4885881167
 H        -0.3559722698       -9.8306153882       -8.2047102528
 H        -2.5397735235      -10.1733929908       -8.3000855586
 H        -2.0086489843      -10.2133981060       -9.8028599565
 H        -6.2723255323       -8.8791502161       -8.2607496594
 H        -7.3040995458       -8.9329329061       -9.7265178564
 H        -8.5687818890       -7.4923094762       -8.2370304053
 H        -7.4787920317       -6.3278134858       -8.9117534648
 H        -9.2494347086       -8.8676347839       -7.2327137346
 H        -9.9341496926       -9.2642719813       -5.6905645124
 H       -10.0374118453      -11.4642412422       -6.2506762339
 H        -8.2431289545      -11.4386889650       -6.2372463905
 H       -12.1367539774      -11.5498747835       -6.5911428845
 H       -13.2053398511      -11.6220985044       -8.0136261120
 H       -14.3520865658       -9.7879002623       -7.3921578680
 H       -13.0032865394       -8.7586230977       -6.9099419650
 H       -15.1052009124       -7.3963103957       -1.9552555187
 H       -13.8347979672       -6.3526082364       -2.4921213168
 H       -13.6053079856       -8.0668511672       -2.0711735615
 H       -17.0808406516       -8.9515969840       -5.4350534917
 H       -15.9796251581       -9.7783172787       -6.6266861725
 H       -15.7451504380       -8.0719123324       -6.4323761438
 H       -16.5447701272       -9.6217253063       -3.0473837399
 H       -14.7449108622       -9.9348723956       -2.7729445789
 H       -15.7255617265      -10.9838327651       -3.8031399229
 H       -10.9030575029      -11.4852461707      -11.2418042946
 H        -9.2740958703      -10.7961716607      -10.7785373891
 H       -10.6038482588       -9.8720358084      -10.5341375916
 H       -10.6699959854      -13.4350866256       -7.9122067228
 H       -10.2323726809      -13.4243634843       -9.6527466285
 H       -11.8702438490      -12.9385784909       -9.3231022202
 H        -5.3971321503       -8.1048960524       -4.6586481906
 H        -6.8000404304       -7.9862939349       -3.6208751946
 H        -6.0160257585       -6.4439796349       -4.3896035304
 H        -8.4811924534       -5.6666024382       -4.6662165654
 H        -9.0065666624       -7.4128795162       -4.3484513494
 H        -9.2742931292       -6.5520937096       -5.9868552348
 H        -2.7184627436       -8.0621555563      -11.6195792636
 H        -3.9842855980       -6.7034788028      -11.5309694524
 H        -4.3162598024       -8.2491732279      -12.4910789970
 H        -4.1062201448      -10.5764377500      -11.3225999103
 H        -5.6577022751       -9.8760373632      -11.5421534651
 H        -5.1930480959      -10.4625638753       -9.8349316508
 H         2.4155691458       -5.8198384060       -9.7299919330
 H         0.8172349527       -5.8975647183      -10.5863144367
 H         1.9521766883       -7.2716358637      -10.5556465473
 H         1.2619119172       -8.5079864246       -7.1778199622
 H         2.8272036637       -7.6347731117       -7.5335561804
 H         2.1665934779       -8.8895726796       -8.6473426878
 H        -1.5865474727       -2.9483422489       -3.9430691904
 H        -2.5216438816       -1.5215436742       -4.1576002097
 H        -1.0328790694       -1.6455644900       -5.0442055673
 H        -4.4411964589       -3.6734029712       -4.3045774794
 H        -3.0260241665       -4.6607096615       -4.2538359385
 H        -4.2388650404       -4.5058979088       -5.7528608930
 H        -3.7400147933       -0.6319031130      -11.0775389940
 H        -2.2197611738       -1.2251272991      -11.5882360718
 H        -2.6963849911        0.4190369289      -12.1487931282
 H         0.1951080924        0.3691955091       -9.5856895995
 H        -0.1970833808        0.3478363670      -11.3093338303
 H        -0.3708036563       -1.1538643333      -10.3701289516
 H        -1.5107683038        6.4224183137       -8.3204078611
 H        -3.2663044730        6.3702605315       -8.6792933937
 H        -2.5395021513        7.9092795532       -8.8505223660
 H        -4.0014943154        6.0948591681      -11.0166663810
 H        -2.7753957643        6.6442861269      -12.3202891843
 H        -3.5059748112        7.7627009509      -11.1296162116
 H         2.8001148139        3.9120878565       -8.7502870377
 H         4.0175881475        4.6791548585       -7.8245079121
 H         4.3945205729        3.9268254743       -9.3792704116
 H         4.6171294536        6.8816629689       -7.8442786086
 H         3.6822666559        7.8894801898       -8.7837870929
 H         5.1699907887        7.2763351385       -9.4622702299
 H         5.6448983479        1.2752820854      -14.3671360781
 H         5.5300295720        1.2727151127      -16.1550350819
 H         4.2795690427        0.5184156359      -14.9317888346
 H         5.6225971579        4.4960427546      -15.4789266737
 H         4.6584300143        4.2037663680      -16.9351363548
 H         6.1212836601        3.3062800969      -16.5737016189
 H        -3.5055920864        3.8312889533      -15.2866108893
 H        -2.3253256734        2.8188838647      -14.6160909251
 H        -3.2978014981        2.0071740374      -15.8620790727
 H        -2.0399623126        1.9151630610      -17.8663718338
 H        -0.8147259203        3.0722047439      -18.4031968938
 H        -2.5239652363        3.5208383257      -18.5914859432
 H        -0.8804011268       10.0947570848      -17.4721786582
 H         0.8927333398       10.0147932230      -17.3189455528
 H         0.0387596553       11.3041426463      -16.6098687337
 H         0.7785331878        8.4470282541      -13.8812175497
 H         0.8710435405       10.2377728279      -13.7291924992
 H         1.9087284629        9.3452578205      -14.9001516561
 Na       -0.5300763425        5.7489055313      -13.4844705330
 Na       -4.3139694363       -5.2230487500       -8.3538510733
