232

 C        -2.0225894158       10.7987865602      -14.6722158894
 C        -1.5345929704        9.3781038529      -14.7757473942
 O        -2.0133533366        8.4608758106      -14.2278495358
 C        -0.1810776350        9.1656238470      -15.5782007341
 C        -0.1462212530        7.7003211836      -16.1503246182
 O         0.4979219248        6.9098576800      -15.5572256368
 C        -0.8515015605        7.3776661354      -17.4529308002
 C        -0.9012366275        5.8295232045      -17.5549528749
 C        -1.6443595941        5.1706664444      -16.4522565804
 O        -2.0601772791        5.7469446472      -15.4857987211
 C        -1.6205235519        3.5978600335      -16.4750673745
 C        -0.2604804513        3.0725907943      -15.8848957397
 O         0.0638804882        3.5902951277      -14.8665358137
 C         0.4496049164        1.9120046056      -16.5414225371
 C         1.8535112140        1.6590552415      -15.9703841671
 C         2.9082514107        2.8838335940      -15.9547256033
 O         2.5539951301        3.9326998260      -16.4918250508
 C         4.2914778015        2.8220979714      -15.3040445678
 C         3.9994242442        3.1875073462      -13.7906844370
 O         3.9131483974        2.2591783725      -12.9704014520
 C         3.9663511298        4.6343568979      -13.3861052498
 C         3.2729187541        4.8769975350      -12.0299848689
 C         4.1696487338        5.6871492768      -11.0715839028
 O         5.3206515771        6.0684603064      -11.3214691560
 C         3.5382433099        5.9304343710       -9.6023744488
 C         2.0337758572        6.2720811988       -9.6188381960
 O         1.1511240812        5.4736614193       -9.3881371359
 C         1.5860679413        7.6111172813      -10.1379916069
 C         0.1926990770        8.1235460095       -9.8700132302
 C        -0.6999682850        7.4281075049      -10.8416507975
 O        -0.3706370987        7.5241731510      -12.0045433920
 C        -1.9042095065        6.5506369336      -10.3574692198
 C        -1.5029336887        5.1209662153      -10.5441957258
 O        -1.0740740382        4.7539774416      -11.6464623888
 C        -1.6393275299        4.0615519067       -9.3906181325
 C        -1.0840272939        2.7068954120       -9.6938620886
 C        -2.1730891236        1.7424545997       -9.8538324620
 O        -3.3508825442        2.0888292329       -9.8023388264
 C        -1.8657136543        0.2192467940      -10.0414096900
 C        -2.3123170492       -0.4671131086       -8.6829400052
 O        -1.4638311047       -1.0823957754       -8.0593452664
 C        -3.6975671517       -0.1976980226       -8.0459371301
 C        -3.6974582856       -0.8023107945       -6.5977125145
 C        -3.5567006612       -2.3331875707       -6.6971377321
 O        -4.2647191907       -2.9470965132       -7.5636379146
 C        -2.7393647652       -3.2230570959       -5.7408937686
 C        -1.7936529735       -4.0698546993       -6.6628190596
 O        -2.2326964647       -4.9484345415       -7.3650475277
 C        -0.2561575971       -3.9532309403       -6.4747252866
 C         0.2634314874       -4.5518223688       -7.8012569014
 C         0.4272997147       -6.0985528884       -7.5959659232
 O         0.1268352938       -6.6097943684       -6.5385052697
 C         0.9530489055       -7.1807074261       -8.6934119453
 C        -0.3340969291       -7.9346663629       -9.3257349376
 O        -0.6342307131       -7.7695293306      -10.4787741428
 C        -1.0398405575       -9.0632245157       -8.4465455753
 C        -2.3180715341       -9.5836590178       -9.0537560240
 C        -3.3479981491       -8.4222287712       -9.2452420858
 O        -3.3304611945       -7.4496778811       -8.5328741398
 C        -4.5023666751       -8.5262944453      -10.4569488206
 C        -5.6869047190       -7.6182708263       -9.9174217358
 O        -5.6626557611       -6.4277246186      -10.1122244963
 C        -6.8121757199       -8.2053253254       -9.0165882289
 C        -7.4505343361       -7.0411975738       -8.2247206515
 C        -6.7575566683       -6.8547211835       -6.9517247419
 O        -5.8197231421       -6.0682413731       -6.8272659378
 C        -7.4362329374       -7.5970045189       -5.5972145913
 C        -7.7442524911       -9.0162345150       -5.9770516734
 O        -6.8467183391       -9.8554437191       -6.0775938334
 C        -9.2166636686       -9.4970510830       -6.2054468345
 C        -9.3153355343      -10.9676378881       -6.6088586894
 C        -9.0826634940      -11.1777204133       -8.1000763299
 O        -8.0292797308      -11.1051260228       -8.6944764864
 C       -10.4079290868      -11.3545914560       -8.9447363979
 C       -11.5655350891      -10.4562607251       -8.3161046970
 O       -11.3219775388       -9.2645664213       -8.4070387713
 C       -12.7143178859      -10.8581705223       -7.3899343063
 C       -13.3538291908       -9.6406994291       -6.7437012398
 C       -13.7337052450       -9.8391238688       -5.2339354631
 O       -13.0505515883      -10.5822731830       -4.5003392922
 C       -14.9617920033       -9.2101983652       -4.6215568364
 C       -14.5928833507       -7.7250945811       -4.1602036428
 O       -14.5241811950       -6.8402549228       -4.9877790057
 C       -14.2314324329       -7.3886079133       -2.7730337887
 C       -16.1446343052       -9.1576592169       -5.6608144370
 C       -15.4480286470      -10.2169894568       -3.4949819520
 C       -10.2505229015      -11.0688802491      -10.3731356182
 C       -10.8565105143      -12.8630653337       -8.7230556013
 C        -6.3930146228       -7.3969317415       -4.4137531140
 C        -8.7003083671       -6.7852281548       -5.2847691472
 C        -3.7614835017       -7.8162359589      -11.6404031455
 C        -4.7920234030      -10.0211939122      -10.7905279189
 C         1.7808781002       -6.4693767838       -9.8310763574
 C         1.9875099836       -8.1338367490       -8.0303114191
 C        -2.0525902043       -2.3219211757       -4.6928338125
 C        -3.6280107374       -4.1484529139       -4.9940288051
 C        -2.7300115376       -0.2846061317      -11.2725951169
 C        -0.3912550192        0.0255912852      -10.2708475294
 C        -2.4984773734        6.9366995951       -8.8539788433
 C        -3.1048759524        6.7244251859      -11.2970390918
 C         3.6612895606        4.5326188915       -8.8975562689
 C         4.3577974673        7.0152459445       -8.8405912187
 C         4.9229262990        1.4068130830      -15.1863820418
 C         5.1542248246        3.7184222869      -16.0731685034
 C        -2.8123438978        3.1152612982      -15.6050834482
 C        -1.9308201859        3.1363866246      -17.9479556658
 C         0.0156651021       10.3190787281      -16.5870817756
 C         0.9449259330        9.3966006839      -14.4869752104
 H        -2.1980172924       11.2036913585      -15.6569600447
 H        -1.2966440860       11.5348871010      -14.2493174953
 H        -2.9854845739       10.8813359468      -14.1753652276
 H        -0.2764737604        7.7374373867      -18.2880398415
 H        -1.9159380477        7.8195105092      -17.5077776318
 H         0.1024191707        5.3418834961      -17.7108400518
 H        -1.4753132234        5.6290127202      -18.5149424685
 H         0.5340003897        2.1841759021      -17.5696266117
 H        -0.2259598119        1.0883246259      -16.2893201216
 H         2.2310047821        0.8282955815      -16.5514746567
 H         1.7865362690        1.2965269360      -14.9221094191
 H         3.6472496749        5.1003592310      -14.3496714973
 H         5.0431917578        4.8231009101      -13.3059813558
 H         3.0386017503        4.0065187185      -11.4832262221
 H         2.3626772595        5.3913625455      -12.2159844007
 H         1.6356759893        7.6746100917      -11.2448280609
 H         2.2105791616        8.4797080943       -9.8847832537
 H         0.2951963241        9.1863174811      -10.0246292758
 H        -0.0497880982        7.9806249581       -8.7499258596
 H        -2.7248611902        3.8777071041       -9.2543956975
 H        -1.4005840150        4.4220230738       -8.4454924890
 H        -0.4230656800        2.5030103229       -8.8561324946
 H        -0.4775956612        2.6847107356      -10.6688427034
 H        -4.5806873682       -0.5671119394       -8.5249718445
 H        -3.8447576500        0.9678200375       -7.8770821220
 H        -4.6978588350       -0.6931317343       -6.0748989906
 H        -2.9113794121       -0.3355052180       -6.0656958698
 H         0.1823789617       -4.5273539242       -5.6690620491
 H        -0.0135424568       -2.8663231562       -6.3329155961
 H         1.2065671294       -4.1706033075       -8.2882807694
 H        -0.4394487130       -4.3712795257       -8.5584996251
 H        -1.1877490232       -8.5100058512       -7.5417051190
 H        -0.4476038674       -9.9477221148       -8.2239206124
 H        -2.7429288433      -10.4601141520       -8.5131661050
 H        -2.0533157375      -10.0119758316       -9.9787650138
 H        -6.6263930894       -8.9766680439       -8.3600126359
 H        -7.6040390502       -8.4904804218       -9.7497491371
 H        -8.4425492109       -7.3936101052       -8.1233752503
 H        -7.4140957040       -6.1619763034       -8.7741810560
 H        -9.6384987462       -8.7844437745       -6.9615490372
 H        -9.7893836422       -9.4359083110       -5.2429608116
 H       -10.3326087503      -11.3175137991       -6.3439659969
 H        -8.6031943134      -11.5386899460       -5.9896335084
 H       -12.2211118191      -11.5180739699       -6.6190796575
 H       -13.4938092903      -11.4615987843       -7.8856200637
 H       -14.1978968984       -9.5077389625       -7.3929536738
 H       -12.7141751358       -8.7881497326       -6.7305894730
 H       -15.1192303258       -7.4181238452       -2.1184681387
 H       -13.8435223017       -6.3968248718       -2.7007961751
 H       -13.5838547372       -8.0853682484       -2.2017069234
 H       -17.0246854065       -8.7416606386       -5.1407357662
 H       -16.3800738422      -10.2293639832       -5.8724931531
 H       -15.9951941274       -8.7435688790       -6.6668507620
 H       -16.2727591108       -9.8032169184       -2.9963225441
 H       -14.5456820696      -10.4379428089       -2.9081948882
 H       -15.8328732211      -11.1261272661       -4.0734482088
 H       -11.2147621442      -10.8885421667      -10.8049124360
 H        -9.6580254299      -11.7672624406      -10.9354509226
 H        -9.6091086206      -10.1504118582      -10.4913401674
 H       -10.8448074907      -12.9711352006       -7.6640374300
 H       -10.0642578892      -13.5234366728       -9.1366027872
 H       -11.8170459307      -12.9599582901       -9.2248641100
 H        -5.3655354826       -7.6812888674       -4.7354046652
 H        -6.6241628450       -8.1441566178       -3.6658037018
 H        -6.3430952196       -6.3690411960       -4.1151119870
 H        -8.3926179781       -5.8721168177       -4.7724862500
 H        -9.3137181259       -7.3569454802       -4.5908137737
 H        -9.1240705097       -6.4755145216       -6.2356327877
 H        -2.7817480159       -8.2882961805      -11.8296322729
 H        -3.6619132117       -6.8153394412      -11.2161660019
 H        -4.5017595178       -7.8073675079      -12.5173213001
 H        -3.7237622628      -10.4006448449      -10.8844030131
 H        -5.2352910186      -10.1866405842      -11.7220620147
 H        -5.3338362596      -10.5422898719       -9.9630231419
 H         2.6622792292       -5.9446748698       -9.4675477596
 H         1.0202933415       -5.7762533264      -10.2917712031
 H         2.0560400567       -7.2501517232      -10.5998019302
 H         1.6081626582       -8.6143774507       -7.1276267729
 H         2.9505233071       -7.6730270548       -7.8216621836
 H         2.1256970659       -8.8835178480       -8.7584336372
 H        -1.6078665544       -3.0237295502       -4.0026803943
 H        -2.8492454695       -1.7964258806       -4.1371625759
 H        -1.3542412378       -1.6060303841       -5.0086919831
 H        -4.2561059683       -3.6595510432       -4.1988131250
 H        -2.9306576574       -4.7692322493       -4.4090522168
 H        -4.3706598078       -4.5032003118       -5.7048502107
 H        -3.7436601345       -0.3826350504      -11.0121173781
 H        -2.3551364024       -1.2113390246      -11.6556718060
 H        -2.6525361780        0.5430472788      -11.9431855477
 H         0.2471123174        0.6784856337       -9.6896503709
 H        -0.2165989907        0.3026564978      -11.3382961765
 H        -0.1548306998       -1.0246927314      -10.0595558069
 H        -1.9427609771        6.3918176292       -8.0997591747
 H        -3.5306854241        6.6291173989       -8.8122797196
 H        -2.5858516968        8.0177282369       -8.8219473925
 H        -3.9512832255        6.0433418330      -11.0501634216
 H        -2.7617141545        6.5750658681      -12.3157538074
 H        -3.4982343005        7.7477497123      -11.1424022013
 H         2.7438580079        4.0978828297       -9.2502702244
 H         3.4684679939        4.4711578938       -7.8004816586
 H         4.4090311933        3.7757350649       -9.2512350416
 H         4.2718438047        6.7459468932       -7.7639777686
 H         3.9393337847        7.9432070032       -8.8933381298
 H         5.4211244217        7.0238969632       -9.0842008154
 H         5.5375273458        1.3371909029      -14.2675423421
 H         5.5548187742        1.2446700880      -16.1044933989
 H         4.1475694149        0.7048450911      -14.9188165351
 H         5.9526578695        4.2731205013      -15.4581656065
 H         4.6004862308        4.4800846154      -16.7491515266
 H         5.8144918490        3.1123149469      -16.7460479132
 H        -3.6765119441        3.7816943950      -15.5870069281
 H        -2.5066379605        3.0349190025      -14.5938550691
 H        -3.0291983653        2.0790616598      -15.9598338457
 H        -2.1475642066        2.0051641897      -18.0647345309
 H        -1.0333589698        3.3338683611      -18.5248778705
 H        -2.7430312267        3.7710624030      -18.3120783521
 H        -0.7024287662       10.3020846811      -17.3959266645
 H         0.9943747168       10.3165037677      -16.9777646785
 H        -0.0016935059       11.2700580586      -16.1374176941
 H         0.7198647724        8.7568671191      -13.6481970987
 H         0.9313041883       10.4250378528      -14.0627842363
 H         1.9764786362        9.0989554809      -14.7558859241
 Na       -0.5845652834        5.8525690134      -13.5627044325
 Na       -4.3716122389       -5.2779760866       -8.3094121120
