232

 C        -2.0759501791       10.7368100360      -14.6748554222
 C        -1.4993829239        9.3521266039      -14.7921693790
 O        -1.9998179071        8.3361225778      -14.2825164754
 C        -0.1302138953        9.1869139538      -15.5731715747
 C         0.0178681979        7.7180953345      -16.1535477201
 O         0.5069674762        6.7915041022      -15.4834127948
 C        -0.6955691631        7.3614846348      -17.5018243015
 C        -1.0393806342        5.8239687500      -17.7649205484
 C        -1.5900425452        5.1748542198      -16.4868662467
 O        -2.1575278539        5.7871444168      -15.5833854261
 C        -1.6792323022        3.5866461037      -16.4704710545
 C        -0.2701464780        3.0204736161      -15.8272139768
 O         0.1431875766        3.4882432191      -14.8007873908
 C         0.4878239193        1.8531105727      -16.5314883394
 C         1.9001023187        1.6745078932      -15.9784133371
 C         2.7947305394        2.9589771283      -16.0228724405
 O         2.4701957071        3.9565130253      -16.5600023066
 C         4.2590265640        2.8360736562      -15.3549528545
 C         4.0338608638        3.2696728896      -13.7926804251
 O         3.7831727509        2.3638515159      -13.0098892991
 C         4.1344214500        4.7604757194      -13.3425906478
 C         3.3255287925        4.7721446907      -11.9811477431
 C         4.0912868048        5.6773110760      -10.9999935246
 O         5.2426914581        5.8957708616      -11.2261817596
 C         3.4750873111        5.9165641321       -9.5595007899
 C         2.0188616926        6.2872920734       -9.6053952317
 O         1.1848754749        5.4570265035       -9.3181695199
 C         1.7278434435        7.7841234995      -10.0948324490
 C         0.2682302049        8.1478293064       -9.8817068823
 C        -0.7904481869        7.5122463634      -10.8333046939
 O        -0.4943529365        7.4932213150      -12.0092945278
 C        -2.0210899754        6.6862510983      -10.4171676825
 C        -1.4393064894        5.2050430164      -10.5149464500
 O        -0.9892871640        4.8223198809      -11.5913902453
 C        -1.5950722112        4.2121489115       -9.3840988501
 C        -0.9596695849        2.8275222856       -9.6051236519
 C        -2.1003902164        1.8221332316       -9.9016265370
 O        -3.1961778392        2.2084083316      -10.1497934054
 C        -1.7698929757        0.2571813018      -10.0329430591
 C        -2.2063545588       -0.4036515177       -8.6000332153
 O        -1.4731947153       -1.0982648163       -7.9489537161
 C        -3.6016566601       -0.1865776424       -8.0085643402
 C        -3.7674555649       -0.7764642430       -6.6684772995
 C        -3.6995328427       -2.3565383855       -6.7384989567
 O        -4.3360289834       -2.8792660631       -7.6102816804
 C        -2.7549016046       -3.3206368178       -5.7155771927
 C        -1.7448652057       -4.2150033577       -6.5887192941
 O        -2.1577162173       -5.0608352969       -7.3426050755
 C        -0.2752032036       -3.9590553305       -6.6463803169
 C         0.4853705235       -4.7522085518       -7.7696145388
 C         0.4677276674       -6.2639520645       -7.5288654739
 O         0.1185282615       -6.6461748437       -6.4271084832
 C         0.9858444384       -7.1881758389       -8.7244811200
 C        -0.2863632440       -7.9344696173       -9.3607128940
 O        -0.7539345681       -7.7794278870      -10.4613510502
 C        -1.0659934950       -8.9754640595       -8.4950742896
 C        -2.4081927549       -9.4430449477       -9.2127645348
 C        -3.4454700309       -8.3921429349       -9.2842909982
 O        -3.3244590034       -7.3585451434       -8.5449418502
 C        -4.4758109629       -8.4861664054      -10.3391859917
 C        -5.6843141031       -7.5736477329       -9.9924646977
 O        -5.5376759072       -6.3853766499      -10.2435520148
 C        -6.9044169321       -8.1696277136       -9.1852629702
 C        -7.5643918980       -7.0050569350       -8.2125771651
 C        -6.8148798586       -6.7984740212       -6.9193931534
 O        -5.8226174245       -6.0825515337       -6.7568578344
 C        -7.5007929775       -7.4478936763       -5.6320698037
 C        -7.7232545303       -9.0200168742       -6.0207403808
 O        -6.7923913881       -9.8168744251       -6.1601612744
 C        -9.1893682019       -9.5167919554       -5.9581327809
 C        -9.3593674845      -10.9533654345       -6.4698186283
 C        -9.1997441665      -11.1112966112       -7.9688821482
 O        -8.1110320219      -11.2693481498       -8.5087529918
 C       -10.4875389814      -11.3560655023       -8.8652365479
 C       -11.4992864751      -10.3395227879       -8.2464331427
 O       -11.3824423039       -9.1748100358       -8.4624160161
 C       -12.7050508214      -10.8068323784       -7.3560697533
 C       -13.2483015105       -9.5978197957       -6.6563520707
 C       -13.6935700469       -9.8852933483       -5.2367464957
 O       -12.9191175955      -10.5328168586       -4.5235171377
 C       -15.0284548694       -9.3710877076       -4.5962509917
 C       -14.5539639854       -7.7788172252       -4.2792122610
 O       -14.5470000397       -6.9334551862       -5.1637788477
 C       -14.2721956997       -7.5982453206       -2.8076096261
 C       -16.3716991142       -9.2006812472       -5.4224349583
 C       -15.3482243515      -10.2477373732       -3.4203251665
 C       -10.2423719493      -11.1734117633      -10.3577106069
 C       -10.8561326298      -12.9810640259       -8.5131045913
 C        -6.4986135049       -7.4334456488       -4.4116641795
 C        -8.8077346031       -6.7259219138       -5.3689517237
 C        -3.7661223576       -7.8158954121      -11.6396908731
 C        -4.8439591916       -9.9306961862      -10.7047679906
 C         1.8372510442       -6.3817663254       -9.7703899493
 C         1.9466733932       -8.1901083951       -8.0369235589
 C        -2.0309107967       -2.3586583281       -4.6748285108
 C        -3.7516337649       -4.3338449159       -4.9957776385
 C        -2.7475124756       -0.2672982841      -11.1278096108
 C        -0.2809274619       -0.0525811369      -10.2624676171
 C        -2.4303758174        7.0148693639       -8.9316116606
 C        -3.2098981556        6.8032566692      -11.4403830627
 C         3.6694873551        4.4988000356       -8.8991612782
 C         4.4441976041        6.8374525361       -8.7635617408
 C         4.8291166148        1.2646342983      -15.3583381870
 C         5.3117173709        3.7990921163      -15.9214862366
 C        -2.8627357034        3.2100706278      -15.5773818949
 C        -2.0342362922        3.1836460683      -18.0190723250
 C         0.1189523231       10.3639918525      -16.5904680516
 C         0.9927894672        9.3371633032      -14.4469118015
 H        -2.4224362515       11.0765791401      -15.6949620395
 H        -1.3297137825       11.4808222245      -14.4389539551
 H        -2.9709116825       10.8681982285      -14.0397802444
 H         0.0383937819        7.6817918054      -18.3263413312
 H        -1.5303317285        7.9611817316      -17.5239250918
 H        -0.1075461922        5.2926513220      -18.1170873489
 H        -1.7910351046        5.7409388417      -18.5347674757
 H         0.5573494130        2.2244634853      -17.5766399624
 H        -0.1053121391        0.9626157718      -16.3087799255
 H         2.3974486901        0.8571608974      -16.5572958048
 H         1.8927601907        1.2923431489      -14.9512848577
 H         3.7820135554        5.3170663328      -14.1940548155
 H         5.1941748173        4.9218668059      -13.2429766111
 H         3.1467661568        3.8031804822      -11.5000032528
 H         2.3545824643        5.2009985412      -12.3115179340
 H         1.8049817927        7.9632104047      -11.1600180539
 H         2.3884837171        8.5429918137       -9.7035295062
 H         0.1749535184        9.2256792010       -9.9144950033
 H        -0.0289462677        7.8237591096       -8.8160421809
 H        -2.6350481371        4.0287065729       -9.2089494123
 H        -1.2686045864        4.6808675386       -8.4749610833
 H        -0.4545021744        2.6319232059       -8.6895459868
 H        -0.1991867463        2.8341549446      -10.4453154407
 H        -4.4491440891       -0.6119984883       -8.5592143448
 H        -3.8005373034        0.8934669910       -7.8608434604
 H        -4.7804051250       -0.4899128796       -6.2722794314
 H        -3.0154685616       -0.3671868843       -6.0989155912
 H         0.1962974861       -4.3413395255       -5.7595572418
 H        -0.0698910157       -2.9051379305       -6.6956448514
 H         1.5387162969       -4.3819442234       -7.8171041174
 H         0.0839691014       -4.5375532358       -8.7586955853
 H        -1.1596123727       -8.4553763680       -7.4438258401
 H        -0.4680170399       -9.9227412031       -8.3664977255
 H        -2.9062555098      -10.4060158135       -8.7047486161
 H        -2.1540308469       -9.8292827977      -10.2238516653
 H        -6.5731170352       -8.9967065170       -8.5020198816
 H        -7.7028739853       -8.5382546571       -9.8341762026
 H        -8.5862704004       -7.3231289451       -8.1179988557
 H        -7.4500734334       -6.0472214004       -8.7293905875
 H        -9.8108890470       -8.7568816603       -6.5375957913
 H        -9.4583624668       -9.4959139677       -4.8531565172
 H       -10.2814592770      -11.3865012607       -6.1304834740
 H        -8.5279696048      -11.5426703797       -6.0576501061
 H       -12.5031301440      -11.5789276293       -6.6475704370
 H       -13.4664791242      -11.1943527653       -8.1070772289
 H       -13.9805028228       -9.0821296943       -7.3521602593
 H       -12.4063521566       -8.9887378350       -6.4173092572
 H       -15.0930595645       -7.6660502810       -2.1029381203
 H       -13.7746905757       -6.5970903665       -2.6315650531
 H       -13.6112606375       -8.3272784707       -2.4307421057
 H       -17.0391568102       -8.5316513814       -4.9667977013
 H       -16.7849537404      -10.1893810950       -5.5673842449
 H       -16.1646337605       -8.9023457033       -6.4697802728
 H       -16.1167978264       -9.7032259548       -2.8835216355
 H       -14.4011947158      -10.4446603839       -2.8599628905
 H       -15.8119536429      -11.1448479914       -3.8318751153
 H       -10.8270061802      -10.3851870411      -10.7825933938
 H       -10.4256804328      -12.1339217516      -10.9831367689
 H        -9.2022141176      -11.0736786703      -10.5200936273
 H       -11.1137398209      -13.0430640392       -7.4840365999
 H        -9.9429090204      -13.4758055327       -8.7104680519
 H       -11.6738756179      -13.3297916298       -9.2089716363
 H        -5.5049066851       -7.6192386081       -4.7309497708
 H        -6.7691394543       -8.2890725922       -3.8847452912
 H        -6.4479041373       -6.4968265001       -3.8486692056
 H        -8.5408164446       -5.7788130994       -5.0419788403
 H        -9.3047927890       -7.2093064467       -4.5975772009
 H        -9.3138905070       -6.6145623331       -6.3563309207
 H        -3.0584482872       -8.5017283542      -12.1233405047
 H        -3.3085631570       -6.9151638380      -11.2874073562
 H        -4.6503125495       -7.5887479745      -12.2374404514
 H        -3.8960705560      -10.4849147526      -10.7630935879
 H        -5.2847077148       -9.9081622686      -11.7303817490
 H        -5.5730697720      -10.3985367913      -10.0831426262
 H         2.7784532958       -5.9765373646       -9.2627349731
 H         1.2200262886       -5.5876040681      -10.1764383411
 H         2.1031061820       -7.0905583902      -10.6101457986
 H         1.5399954088       -8.5349199570       -7.1326938794
 H         2.8505036301       -7.7242932076       -7.8355527980
 H         2.1161436468       -9.0543189650       -8.6893139480
 H        -1.2852440595       -2.9570539361       -4.1153967228
 H        -2.7082569537       -1.8881200538       -3.9816073767
 H        -1.4411078012       -1.6138671397       -5.1985432987
 H        -4.3377112986       -3.8180271518       -4.1978334004
 H        -3.0749078585       -4.9356238171       -4.4020251717
 H        -4.5154477479       -4.7238904926       -5.6780571063
 H        -3.7824445264       -0.0519839966      -10.9142189886
 H        -2.5859269796       -1.3528541409      -11.3251103854
 H        -2.5161146870        0.3569076283      -11.9222977778
 H         0.3325652232        0.4842065238       -9.5335216785
 H         0.0200225038        0.3486408479      -11.2438736095
 H        -0.1201205910       -1.1353783626      -10.1301226971
 H        -1.7758403295        6.5676736648       -8.2788434115
 H        -3.4716497707        6.5655363011       -8.7890947894
 H        -2.6600494511        8.0777030542       -8.9027177776
 H        -3.9167835166        6.0556479208      -11.2688533353
 H        -2.7496555537        6.6092956356      -12.4078527870
 H        -3.7338588956        7.7939710197      -11.4124356919
 H         3.1327218374        3.7560269642       -9.4873406712
 H         3.1435276545        4.4140540563       -7.9279500416
 H         4.7303888484        4.0936928565       -8.8931889097
 H         4.1334513072        6.9035565562       -7.7547395223
 H         4.4835908360        7.9396757391       -9.1696014305
 H         5.4630066653        6.3765880732       -8.7363160063
 H         5.7472405633        1.2283944799      -14.7014117630
 H         5.1119901948        1.0335892863      -16.3638469005
 H         4.1604538665        0.5941701180      -14.8045585996
 H         6.2798758965        3.8505477500      -15.3703393985
 H         4.8547685985        4.8665063737      -16.0162392522
 H         5.6083707328        3.5264241712      -16.9610098363
 H        -3.8058909813        3.5062742212      -15.8437325893
 H        -2.6460504995        3.5509584677      -14.5635213804
 H        -2.7692777417        2.1186536907      -15.5864812306
 H        -2.0024582563        2.1128203222      -18.1686616234
 H        -1.2875167119        3.5905895987      -18.7611941756
 H        -3.0277696343        3.6251286018      -18.1851626940
 H        -0.6242020012       10.3162845155      -17.3305127684
 H         1.0877627834       10.2965251040      -17.0298077094
 H         0.1680208198       11.3420394750      -16.1523518753
 H         0.8204190676        8.7840679941      -13.5397454662
 H         1.1833809742       10.3672649076      -14.2619990817
 H         1.9556073674        8.8676131690      -14.8082779275
 Na       -0.6783049284        5.9495793875      -13.8202258074
 Na       -4.3973690264       -5.3230776576       -8.3029898175
