232

 C        -2.1487627293       10.4987106416      -14.7619871213
 C        -1.3579614672        9.1536012246      -14.7391153809
 O        -1.8222914527        8.1233416542      -14.4215711084
 C         0.0064029708        9.1513063568      -15.5598457771
 C         0.1174027343        7.6190067220      -16.0929823821
 O         0.7149495481        6.7642568049      -15.5615141787
 C        -0.4982335165        7.4154014884      -17.5681483350
 C        -0.9451135004        6.0251026136      -17.8201929171
 C        -1.7223575501        5.2981441220      -16.6971700893
 O        -2.3169671929        5.9239124749      -15.8687154145
 C        -1.6775156283        3.6616791838      -16.6140634605
 C        -0.3097945012        3.2414289135      -15.8572100443
 O        -0.0935819666        3.6582669966      -14.7554111800
 C         0.4627708346        2.1297996060      -16.5770536290
 C         1.8090319310        1.8297806804      -15.8781022612
 C         2.8247017885        3.0840108691      -16.0260303210
 O         2.4839192476        4.0539116512      -16.7151905940
 C         4.2143379338        2.9302539650      -15.3737749074
 C         3.8480113559        3.1454869609      -13.8605299326
 O         3.4731241748        2.2223854030      -13.1659645299
 C         4.0082954570        4.6003239159      -13.2823203450
 C         3.4217231784        4.9369705097      -11.9785951944
 C         4.2777341505        5.4720440707      -10.9069792796
 O         5.3895670830        5.9400086776      -11.1408315857
 C         3.5505917493        5.7258880759       -9.4349456067
 C         2.0384830308        6.3651990065       -9.4889663750
 O         1.0773918869        5.6288198719       -9.2609368327
 C         1.7958128908        7.8100500367      -10.0001263651
 C         0.2964484798        8.1432815614       -9.8835696579
 C        -0.5645576085        7.5628805583      -10.9469620178
 O        -0.3338965865        7.7016724782      -12.1279338733
 C        -1.9578136711        6.7248325540      -10.4900958015
 C        -1.3833606360        5.2907434294      -10.5663220273
 O        -0.9581746083        4.8597364308      -11.6047987376
 C        -1.3989767160        4.3896934044       -9.3063225789
 C        -0.9210070763        2.8744380200       -9.4041049855
 C        -1.9674833093        1.9825383312       -9.9739757479
 O        -2.8905168368        2.3753739129      -10.6878591057
 C        -1.6869611174        0.3765428346       -9.8584277551
 C        -2.0773115829       -0.2933269223       -8.4808558481
 O        -1.2404044934       -1.0065984717       -7.9385552863
 C        -3.5050702378       -0.1977574623       -7.9864300675
 C        -3.7767575027       -1.0485933250       -6.6336078462
 C        -3.6430862187       -2.5275946273       -6.8544683069
 O        -4.3653826387       -3.1319158631       -7.6877974761
 C        -2.7061090258       -3.3023194330       -5.8910420914
 C        -1.8719215387       -4.1981946620       -6.7975026718
 O        -2.2151608041       -5.2055485314       -7.4231093879
 C        -0.4251392072       -3.8886028148       -6.7531800409
 C         0.5605817490       -4.8195976611       -7.5099840467
 C         0.5140605108       -6.3443594951       -7.3486717526
 O         0.0648133526       -6.9597114460       -6.3927937255
 C         1.0930569150       -7.1810244982       -8.5661818092
 C        -0.3019744729       -7.8121415502       -9.2831738195
 O        -0.5888218946       -7.4636266956      -10.3996209892
 C        -1.1030724494       -8.8538732803       -8.5217068686
 C        -2.3173788318       -9.4135015605       -9.2258757228
 C        -3.3752043881       -8.3562960621       -9.2988418925
 O        -3.3128986240       -7.4466993075       -8.5620749780
 C        -4.4714223484       -8.3457520438      -10.4361997531
 C        -5.6555387932       -7.2778009559       -9.9769577645
 O        -5.5071566797       -6.0847106645      -10.2021219459
 C        -6.9391084779       -7.9564520271       -9.1999875980
 C        -7.5719905460       -6.9123882859       -8.3361797902
 C        -6.9543321196       -6.8688415012       -6.9409030362
 O        -5.9212901038       -6.2126394460       -6.8538546556
 C        -7.6813135657       -7.4549181442       -5.6726194551
 C        -7.8354339426       -8.9920855212       -6.0140655063
 O        -6.8190935309       -9.5311271048       -6.3887608073
 C        -9.1867282686       -9.7260744124       -5.7014579666
 C        -9.2768808287      -11.1937064799       -6.1310403955
 C        -9.1902652978      -11.2500664073       -7.7200998087
 O        -8.1126275096      -11.2918657921       -8.2599047814
 C       -10.5013000809      -11.5216882126       -8.5205100132
 C       -11.5250122136      -10.2655379984       -8.2549025197
 O       -11.2396577344       -9.1668013326       -8.7734879482
 C       -12.7915306876      -10.5961404648       -7.4654631849
 C       -13.4735787235       -9.3830472586       -6.6820113315
 C       -13.7874301644       -9.9249547614       -5.1382166114
 O       -12.9451020229      -10.5344069279       -4.5463767645
 C       -15.0767846804       -9.5236214033       -4.4434968661
 C       -14.5948294707       -8.0224453412       -4.1744242021
 O       -14.5377521494       -7.3904853985       -5.2080264572
 C       -14.1229086150       -7.5117134201       -2.8706900531
 C       -16.2657595046       -9.5571625565       -5.4104963385
 C       -15.3602252147      -10.2662837267       -3.0568582589
 C       -10.1970345898      -11.4039737043      -10.0692072143
 C       -11.0898761480      -12.8643362958       -8.2168738468
 C        -6.7474645001       -7.3619202400       -4.4580850315
 C        -9.0229002262       -6.6269107554       -5.3915245550
 C        -3.8205809574       -7.9103254701      -11.7704594701
 C        -5.1000247127       -9.6996559561      -10.5920409597
 C         1.7259148846       -6.4910931088       -9.7883562302
 C         1.8140359345       -8.4624318380       -8.0990162594
 C        -1.9681807557       -2.5735189983       -4.8224724507
 C        -3.6740888035       -4.2587582725       -5.1090451226
 C        -2.6450868996       -0.4451092187      -10.8394041699
 C        -0.2154484964       -0.0519392824      -10.1744949757
 C        -2.5704925153        7.1552159957       -9.0996675954
 C        -3.1077093222        7.0024058904      -11.4925667461
 C         3.4337724002        4.3395881468       -8.7054600977
 C         4.3909067988        6.7589825981       -8.7235768104
 C         4.7120679435        1.3797114607      -15.6007666981
 C         5.3033666105        3.8294947605      -15.9948766110
 C        -2.6696392765        3.2258107000      -15.4767014548
 C        -1.8863537487        2.8129532549      -17.8928556898
 C         0.2528098266       10.1218982417      -16.6613694969
 C         1.1343021963        9.2523255159      -14.4334446179
 H        -2.6668505635       10.6773148360      -15.6646572431
 H        -1.4946851111       11.3898144793      -14.6998415162
 H        -2.9412595154       10.5482284104      -14.0406673117
 H         0.1060179610        7.7893570699      -18.3148021559
 H        -1.4711945984        8.0428175118      -17.4575648543
 H        -0.1069572061        5.4857650209      -18.1361175947
 H        -1.7328608476        6.0527404481      -18.6080215985
 H         0.5856778916        2.5856907843      -17.5329247207
 H        -0.1394660456        1.2232046974      -16.4855298984
 H         2.2547418106        0.9931671359      -16.4089869840
 H         1.6551877552        1.3816605062      -14.8795824366
 H         3.5273473072        5.1403932505      -14.1145562850
 H         5.0851874286        4.8286338690      -13.3378159383
 H         2.8192335571        4.1060664274      -11.4746753216
 H         2.6944795983        5.7139448405      -12.2776558398
 H         2.1859420942        8.1090488428      -10.9859258046
 H         2.3369675039        8.4761150719       -9.3002318082
 H         0.0324517354        9.2188946800       -9.9849194571
 H         0.0132378265        7.7800272745       -8.9107963294
 H        -2.4928974105        4.2679424728       -8.9973567627
 H        -0.9520174405        5.0497739731       -8.5164520904
 H        -0.6912388463        2.4758132245       -8.3897359911
 H        -0.0366418375        2.8225930979       -9.9809128176
 H        -4.2482731578       -0.5755981111       -8.6673545174
 H        -3.7244202469        0.8596451030       -7.7875760204
 H        -4.8169825584       -0.9312095268       -6.3318882410
 H        -3.0943227138       -0.6819895609       -5.8173562030
 H        -0.0793629897       -3.8870068743       -5.6927993973
 H        -0.2098517944       -2.9009850935       -7.2182140858
 H         1.5209893348       -4.4709729033       -7.0859723443
 H         0.5833071808       -4.4806082865       -8.5640987711
 H        -1.3999963970       -8.5316224781       -7.5781968244
 H        -0.3777083449       -9.6630741787       -8.4162384206
 H        -2.6339422109      -10.2147756750       -8.6469605448
 H        -2.1847729779       -9.8310960319      -10.2314627350
 H        -6.5838750571       -8.7936203379       -8.6276866743
 H        -7.7568295871       -8.2840266134       -9.8889684088
 H        -8.6894608968       -7.1649241489       -8.3327662025
 H        -7.2822786970       -5.9719772661       -8.8939941274
 H       -10.0344613738       -9.2293420875       -6.0867982508
 H        -9.1536715378       -9.6342934567       -4.6458042934
 H       -10.2884661403      -11.5124665041       -5.8221812409
 H        -8.5627403654      -11.8959143659       -5.7317974426
 H       -12.5803413141      -11.4066322063       -6.7325583518
 H       -13.4248940017      -10.9741695155       -8.2223602817
 H       -14.4315383086       -9.1740108903       -7.0723525224
 H       -12.7601922542       -8.5036318075       -6.6402452196
 H       -14.8803431728       -7.7242155779       -2.1124809649
 H       -13.9038049663       -6.4991071279       -2.8448376586
 H       -13.2537410679       -8.0648839145       -2.4219392287
 H       -16.9970984359       -9.0663954689       -4.7391653193
 H       -16.5037067340      -10.5802304996       -5.6935432004
 H       -16.3046285147       -8.9538653547       -6.2751157337
 H       -16.1264496285       -9.7012114544       -2.5715488623
 H       -14.4622437753      -10.3427370034       -2.5116997510
 H       -15.7206367612      -11.2621171134       -3.3393450449
 H        -9.2674397419      -10.8336832457      -10.2498693498
 H       -10.8829280596      -10.8166126117      -10.6129068414
 H       -10.1901328227      -12.4344890237      -10.5288721169
 H       -11.4851486097      -12.8554046483       -7.1684589348
 H       -10.2956137677      -13.5954229278       -8.5282316690
 H       -11.9456427490      -12.9539984679       -8.8403590732
 H        -5.7319748259       -7.7457864622       -4.6615052861
 H        -7.1990479197       -7.7968392654       -3.5344697723
 H        -6.5876496508       -6.3128114542       -4.4025979985
 H        -8.7088520070       -5.5541293262       -5.4469000055
 H        -9.2455729491       -6.8578149265       -4.3249815879
 H        -9.7682715245       -6.9482404112       -6.0681076784
 H        -3.3040046454       -8.7877040686      -12.0524217177
 H        -3.1518407057       -7.0992958758      -11.5953901395
 H        -4.5814729368       -7.7119850381      -12.5145285375
 H        -4.4558198925      -10.4232355322      -11.1016534924
 H        -6.0365994047       -9.5534930427      -11.0422380685
 H        -5.4609038112      -10.0961666025       -9.6186043010
 H         2.4438324770       -5.8300548473       -9.4544646721
 H         0.9359879132       -5.9767465978      -10.3636072859
 H         2.1358729025       -7.1961435424      -10.4675158532
 H         1.2086661592       -8.9525522358       -7.2916951372
 H         2.7781181618       -8.1325450334       -7.6096753228
 H         2.0162215429       -9.1602816708       -8.8813374625
 H        -1.4166878452       -3.2135607742       -4.1461811815
 H        -2.6945394672       -1.9388162750       -4.2512384369
 H        -1.2164087609       -1.9470896369       -5.3169222021
 H        -4.4168441862       -3.7061895091       -4.6027153221
 H        -3.1352366643       -4.8022260192       -4.3505659455
 H        -4.1648883680       -4.7855386400       -5.8890905596
 H        -3.5799254344        0.1367406204      -11.0046559780
 H        -2.8451681661       -1.3754218116      -10.3182706790
 H        -2.1922127408       -0.6217746876      -11.8761615973
 H         0.4580243182        0.0540735842       -9.3381690535
 H         0.1665072344        0.5732673026      -10.9609407675
 H        -0.2339749074       -1.0936078384      -10.4226640773
 H        -1.7492526325        7.0660165665       -8.3359697116
 H        -3.3407263803        6.5216001447       -8.8240707221
 H        -3.0426933255        8.1035548934       -9.2736899951
 H        -3.9192088726        6.2708771550      -11.2155632612
 H        -2.8833604208        6.8469956184      -12.5250244923
 H        -3.4178158177        7.9986383298      -11.3396890327
 H         3.3041140850        3.4430438011       -9.2861584522
 H         2.6018730767        4.3342325572       -8.0249172864
 H         4.3289619664        4.1489743020       -8.1786200004
 H         3.8328008203        7.3075995875       -7.8805585391
 H         4.7697253575        7.4211253774       -9.3910631053
 H         5.2248570163        6.2769674704       -8.1775026097
 H         5.7591477885        1.3325094693      -15.6219694334
 H         4.3321827248        1.0895462205      -16.5867080322
 H         4.3331126407        0.7845309498      -14.7997335817
 H         6.2668082190        3.4461350350      -15.8923379779
 H         5.3495637951        4.7447235836      -15.4851096837
 H         5.1025039439        4.0383185307      -16.9877616688
 H        -3.6539967274        3.1156480894      -16.0780665641
 H        -2.8071639081        3.9777177322      -14.7136013596
 H        -2.5253022102        2.2193702473      -15.0888324650
 H        -1.8679568972        1.8041119481      -17.4321576924
 H        -1.1156806595        2.8028878395      -18.5948372040
 H        -2.8284517581        3.0719529507      -18.3087443717
 H        -0.5939893365       10.1343698062      -17.4127939104
 H         1.1915754806        9.8097230346      -17.1713324357
 H         0.5393416798       11.1058765572      -16.2635176457
 H         1.0894645092        8.4258730126      -13.6991166666
 H         1.1933874350       10.3128277094      -14.0433444239
 H         2.0859798057        9.0300653670      -14.8634488019
 Na       -0.9654503029        5.9429070659      -13.9213597726
 Na       -4.4397956494       -5.2480745483       -8.3314164382
