232

 C       -20.9399656968       -7.2276314601       -1.6249988735
 C       -20.7395803893       -5.9182189870       -2.4761130578
 O       -20.2740531110       -4.9562502283       -1.9503661899
 C       -21.0962291570       -5.8211389883       -4.0409142439
 C       -19.9674372055       -5.2058938968       -5.0009090893
 O       -19.8988156239       -3.9966178349       -5.0622888022
 C       -18.9011800368       -6.0363282379       -5.7645116913
 C       -17.7807160937       -5.1007470873       -6.3149642332
 C       -17.2689359427       -4.3122531665       -5.1646076138
 O       -17.2710190016       -4.8523737848       -4.0951660920
 C       -16.6572728645       -2.8339110860       -5.4160815627
 C       -16.5799107179       -2.1855430912       -3.9773899990
 O       -17.5992569688       -1.8467898046       -3.3834344341
 C       -15.2895994066       -2.3604889868       -3.2156809260
 C       -15.3192530264       -1.8801983033       -1.7849914406
 C       -16.0013444760       -2.8392160076       -0.7725754089
 O       -17.2036889469       -3.1447130642       -0.8939157107
 C       -15.0485435862       -3.3255798824        0.3521235961
 C       -14.0202622948       -4.3856618822       -0.1466123867
 O       -12.8967147842       -4.4308238491        0.3465504847
 C       -14.5255826710       -5.4167528453       -1.1875861351
 C       -13.4207648657       -6.3958849618       -1.6290745735
 C       -13.1989554657       -6.5367456957       -3.1706564209
 O       -13.9387826201       -6.0108223376       -4.0002332485
 C       -12.0207152403       -7.3786150420       -3.7062805668
 C       -10.6575180129       -6.8134534707       -3.1916898285
 O       -10.5727141823       -6.4303856797       -2.0483831001
 C        -9.3554512227       -7.0113540719       -4.0271203506
 C        -8.1767385827       -6.3624106628       -3.3650813839
 C        -7.7256463227       -5.0781809651       -4.0605620552
 O        -8.4521356947       -4.5622859316       -4.8732972000
 C        -6.5680613156       -4.1798312305       -3.5052401915
 C        -5.3121830969       -5.1107800839       -3.2006922756
 O        -4.9442568498       -5.3932331260       -2.0673934701
 C        -4.6364919842       -5.6574674055       -4.4139161619
 C        -3.0737888654       -5.9589290907       -4.2971080635
 C        -2.1166866191       -4.7570512837       -4.4383330237
 O        -2.5764185254       -3.6635600171       -4.6276108061
 C        -0.5800479780       -5.0864404177       -4.2829261912
 C        -0.1355247887       -5.4236417318       -5.8379181984
 O         0.0973074000       -6.5506365039       -6.2137479882
 C         0.0281616214       -4.1763428949       -6.8499999540
 C         0.0486541193       -4.6897610135       -8.2761831286
 C         0.7499199095       -3.6543099537       -9.2922586168
 O         1.2933155123       -2.6755188832       -8.9135370507
 C         0.9280036001       -4.0238132602      -10.9329811598
 C         1.4963123239       -2.6973405364      -11.6718293099
 O         0.8777442696       -2.0087934755      -12.4021344284
 C         3.0048839167       -2.4511384826      -11.4569781676
 C         3.7334840337       -2.5448708226      -12.7840361794
 C         4.9395932053       -1.4903908758      -12.9916587255
 O         5.4375533817       -0.9215861581      -12.0480790921
 C         5.4263934968       -1.3051586319      -14.5670055208
 C         5.5330006712        0.2642510732      -14.8863757524
 O         5.1214502582        0.6328881082      -15.9932379965
 C         5.9354185631        1.2996824407      -13.9145434216
 C         7.4857738504        1.6110752329      -13.7511613405
 C         8.0104386903        2.4945475220      -14.9610066838
 O         8.2378032023        1.9259923983      -16.0023024282
 C         8.2223058598        4.0648757371      -14.8610661334
 C         6.8201034230        4.8345248481      -14.6652733095
 O         5.9562326147        4.4477909091      -13.9286725481
 C         6.6230730781        6.1723634628      -15.3717872937
 C         5.3530483949        6.1990100256      -16.3473965305
 C         5.2438285271        4.8688186605      -17.2187961451
 O         6.0471424588        4.0098380410      -16.9376644388
 C         4.3117087768        4.9974539275      -18.4613737167
 C         5.1456013916        5.8397293801      -19.4565536484
 O         5.1910214476        7.0425064950      -19.3062195060
 C         6.1316489781        5.1316334471      -20.3923201629
 C         7.3038327565        6.0496512077      -20.7936658159
 C         7.8964679510        5.5312771372      -22.1579726004
 O         7.1485627977        5.5024790896      -23.1569884892
 C         9.4726808958        5.0816093590      -22.3108975541
 C         9.4014304952        3.6302520453      -21.8887044785
 O         8.9846258477        2.7295079410      -22.5905381363
 C        10.1292128398        3.1232878614      -20.5235200218
 C         9.9952333432        1.5436368195      -20.4761650762
 C         8.4981738105        1.1030557860      -20.2050335553
 O         7.8752766125        1.8266913403      -19.3843562857
 C         7.7911445675       -0.1203354914      -20.7770098832
 C         6.2905990509        0.3748842060      -20.8584381221
 O         5.6000024773        0.5790165774      -19.8658304154
 C         5.5799539745        0.6694549208      -22.1901622212
 C         8.2585553391       -0.4483636705      -22.2465546677
 C         8.0321185525       -1.1887548664      -19.6471077594
 C         9.9079269564        5.1596972961      -23.7843823503
 C        10.3690588466        5.9812246591      -21.5791276443
 C         3.9267799951        3.6091127755      -19.0350107932
 C         2.9552447538        5.7657092858      -18.1036450480
 C         9.0977273968        4.4770852023      -13.5679219847
 C         9.0395098793        4.5001594513      -16.1394046438
 C         6.7805358725       -2.1186177392      -14.5700097687
 C         4.4337022049       -1.8097528406      -15.6288116741
 C         1.8227321807       -5.2237648575      -11.2595704617
 C        -0.5279855915       -4.2073242085      -11.4539531771
 C         0.2070709677       -3.8243357907       -3.7621178138
 C        -0.2598757450       -6.2833261357       -3.3742344679
 C        -6.1136632522       -3.1156486239       -4.5820480855
 C        -7.0366413871       -3.4650127144       -2.2224934755
 C       -12.1359412087       -8.8719616572       -3.2000788211
 C       -11.9772356863       -7.4372145692       -5.2615542563
 C       -14.2124164046       -2.0807891195        1.0347191854
 C       -15.7831097326       -4.0687444753        1.4788185251
 C       -15.2287634468       -2.9584759805       -6.0568664611
 C       -17.5747001053       -1.8382999660       -6.1696416812
 C       -21.3990254723       -7.2188034641       -4.6011238121
 C       -22.3940781163       -4.9591210597       -3.9918316244
 H       -21.6704009034       -7.0093325839       -0.8474607157
 H       -20.0204854195       -7.3970922838       -1.2024344785
 H       -21.1432376151       -8.0998731171       -2.2166761038
 H       -19.4983153617       -6.6685222095       -6.4569763942
 H       -18.5350717913       -6.7852188831       -5.0386545431
 H       -18.1517996426       -4.4659882323       -7.2036953170
 H       -16.8857704892       -5.6624828397       -6.6938115254
 H       -14.4920740824       -1.8656216458       -3.7545380052
 H       -15.1397409724       -3.4760291024       -3.2401369429
 H       -15.7728726704       -0.8566233301       -1.6984477761
 H       -14.2956425937       -1.7365232311       -1.4326932690
 H       -15.0139399963       -4.8974221643       -2.0571882837
 H       -15.3450358829       -5.9479265596       -0.6753836882
 H       -13.5224374024       -7.3944558423       -1.2180475372
 H       -12.4607272900       -6.0494170890       -1.1807592559
 H        -9.5485660269       -6.7311803679       -5.1163748379
 H        -9.1128259843       -8.0874289563       -4.0417218130
 H        -7.3592849335       -7.0387309196       -3.0889064767
 H        -8.6152228483       -5.9307268218       -2.4786090930
 H        -4.8222397768       -5.0144379525       -5.3030784095
 H        -5.0656943358       -6.6837013120       -4.6424909724
 H        -2.7068216035       -6.7202102775       -4.9173277349
 H        -2.9064675726       -6.3667523395       -3.3016479946
 H         0.9997758763       -3.5738004179       -6.8286275827
 H        -0.6535005690       -3.3902430490       -6.6574002503
 H        -0.9048568083       -5.1428344693       -8.6432772370
 H         0.8106931721       -5.5407942206       -8.2179665593
 H         3.4487851468       -3.1054290118      -10.7433134861
 H         3.1658964568       -1.5462412661      -10.8943648885
 H         3.1231936798       -2.3728873198      -13.7284729618
 H         4.2955683951       -3.4472345968      -12.8330962007
 H         5.7159434883        1.1972798089      -12.9034733366
 H         5.5034293221        2.2066336680      -14.0489291372
 H         8.0328807794        0.6856409241      -13.7185325364
 H         7.5638174386        1.9638433753      -12.7197933731
 H         7.4392595744        6.4853794651      -15.9857933054
 H         6.5192671663        6.9627679421      -14.6684917520
 H         5.4339522676        7.1003655415      -16.9502330219
 H         4.4855685699        6.2577232653      -15.6976675156
 H         5.8349472770        4.7000826937      -21.3706571662
 H         6.5616483237        4.2949339988      -19.8309366360
 H         8.1699338105        6.1446647285      -20.1694354959
 H         7.0053757657        7.0381487266      -21.1760086199
 H         9.7399812139        3.6636179776      -19.6190916267
 H        11.1757596970        3.4842775794      -20.6868729036
 H        10.7249168899        1.1798954648      -19.7214131752
 H        10.2320262321        1.2677517069      -21.5711859992
 H         5.6280589692        0.0573657862      -23.0173821838
 H         6.1128791358        1.5958378211      -22.5533602335
 H         4.5733318471        0.8603698067      -21.8877379051
 H         7.6959943266       -1.1814184811      -22.7370997977
 H         9.3792732276       -0.6139332539      -22.3053728322
 H         8.0504714562        0.3150979031      -22.9198113841
 H         8.0493160849       -2.1529591493      -20.1572279320
 H         7.2785195619       -1.1314395316      -18.8490709701
 H         9.0016649913       -0.9983219948      -19.1735691192
 H        10.5419718160        4.3075056161      -24.1425674008
 H        10.2441156907        6.1983038725      -24.1641822941
 H         8.9690042307        5.0661357048      -24.2458830573
 H        11.3955168018        5.6516320529      -21.6443694344
 H        10.1504221218        6.1242792502      -20.4745088791
 H        10.1204418224        7.0001353571      -21.8696809713
 H         3.1991744169        3.0330630930      -18.4072130207
 H         4.8155722193        3.0094792130      -19.2457660105
 H         3.4266390491        3.6783803037      -20.0002770943
 H         3.0776210458        6.7207630375      -17.7090712077
 H         2.2308347861        5.1229046992      -17.5512318240
 H         2.3933297734        5.9843580390      -19.0112409817
 H         8.8795675845        5.5549021987      -13.3478520937
 H        10.1350506590        4.3613606047      -13.7875596464
 H         8.8165947602        3.7989481294      -12.7371548057
 H         9.8797094387        3.8144955170      -16.4692949270
 H         9.4944262869        5.4173891494      -15.8019887331
 H         8.4198846713        4.7625099853      -17.0785879973
 H         6.6823164360       -3.0422333500      -14.0600301423
 H         7.5186915514       -1.5392332279      -14.0726763858
 H         6.9107792259       -2.4929936108      -15.5805746302
 H         4.3660406351       -2.9018855498      -15.6147224552
 H         4.8592830776       -1.4989971397      -16.5853938018
 H         3.4555695882       -1.4798400424      -15.3845327455
 H         1.4680608161       -6.0661376384      -10.7559507046
 H         2.8542204418       -5.0619759491      -10.9495810151
 H         1.7502883478       -5.4642837060      -12.3004302083
 H        -1.0700466036       -3.2896429872      -11.5673911764
 H        -1.0855413325       -4.9129144294      -10.8507372329
 H        -0.5602673840       -4.6193743437      -12.4665693005
 H        -0.0063086184       -3.8684389357       -2.7208557328
 H        -0.2064688751       -2.9395539265       -4.2468842962
 H         1.3086040588       -3.9668209529       -3.9090391501
 H        -0.2980415212       -7.2385669242       -3.9524126453
 H        -0.9176764456       -6.2783783893       -2.5701713466
 H         0.7373114085       -6.1264451618       -3.0029163690
 H        -6.3698546333       -3.6133699244       -5.5511937067
 H        -5.0371166282       -2.8212699695       -4.4599195701
 H        -6.7100770401       -2.2498876596       -4.5169848901
 H        -7.1269701538       -2.3817632160       -2.3955611206
 H        -6.2798942985       -3.6825626394       -1.5072520606
 H        -8.0232205745       -3.8604300029       -1.9249093965
 H       -13.0936624491       -9.2990406901       -3.4947408258
 H       -11.9689186712       -8.9706326393       -2.0860302606
 H       -11.3988710014       -9.5524225753       -3.5438064219
 H       -12.9211603513       -7.7256954996       -5.6793569876
 H       -11.3564291845       -8.2108362866       -5.6324039815
 H       -11.6177701995       -6.4457464101       -5.5837526384
 H       -13.9466314634       -2.2909973702        2.0281603270
 H       -14.7505344391       -1.1953666954        1.0392026190
 H       -13.3643011229       -1.9192492793        0.4210933067
 H       -15.0213723583       -4.5915992273        2.0156159426
 H       -16.5624389472       -4.7178507457        1.1274810218
 H       -16.3002825422       -3.4640650454        2.2018618882
 H       -15.2156953998       -3.8026285134       -6.7983838719
 H       -14.4010214755       -3.1025941450       -5.4420610483
 H       -15.0116788400       -2.0425419628       -6.5779662052
 H       -18.5842347225       -1.6150405692       -5.6251080346
 H       -17.9215751781       -2.2120007066       -7.0862750623
 H       -16.8434010482       -1.1535620675       -6.5025280597
 H       -20.4148866175       -7.7450456334       -4.5450258310
 H       -21.7371739493       -7.1207373002       -5.6266481860
 H       -22.0858010048       -7.7454662718       -3.9904979627
 H       -23.3194550048       -5.5867524116       -4.1141658077
 H       -22.3085154810       -4.1971739785       -4.8213720793
 H       -22.5424536545       -4.5042436262       -3.0102230868
 Na      -18.9550695430       -3.4867713431       -2.7530211558
 Na        6.3908260073        1.7874929219      -17.6000554061
