232

 C        -1.9794872531       10.2155920780      -15.0346855342
 C        -1.2066427447        8.9380885164      -14.9661338931
 O        -1.6163389627        8.0001333832      -14.3541308593
 C         0.1790715751        8.9153106621      -15.5957924414
 C         0.2152262551        7.4420546524      -16.2821983015
 O         0.8164958921        6.6279997905      -15.6649745842
 C        -0.3784364423        7.2518739036      -17.6436855561
 C        -0.6834516971        5.7436620304      -17.6557901408
 C        -1.8900939447        5.3249034594      -16.8269856404
 O        -2.6826197108        6.1159923872      -16.4532841043
 C        -1.8857717276        3.7896387556      -16.5563324026
 C        -0.5497897789        3.4780217761      -15.8869432984
 O        -0.0783907748        4.2444640010      -15.0798543583
 C         0.4058902060        2.4123451048      -16.4969832640
 C         1.6661191280        2.2317601888      -15.6340867707
 C         2.8018464438        3.1914191562      -16.0401663683
 O         2.5803062975        4.0263971216      -16.9397416465
 C         4.2228528291        2.9970808524      -15.3526320452
 C         3.8898809157        3.2836781492      -13.7834819610
 O         3.2624778077        2.3987357997      -13.3103009499
 C         4.1337740441        4.5729515663      -13.0432830327
 C         3.2616604661        4.5550541363      -11.8261838284
 C         4.0416743717        5.4275355502      -10.8126449160
 O         5.2135199143        5.7395715832      -11.0225000802
 C         3.4566551961        5.6964440530       -9.3409893682
 C         2.0197074641        6.3932140999       -9.6023395411
 O         0.9036557258        5.8104913298       -9.5008463242
 C         1.8883975703        7.7944285940      -10.0186069762
 C         0.4242233639        8.2969287615       -9.9165207329
 C        -0.3223267826        7.4227318966      -10.9285750485
 O         0.0915645234        7.3241788020      -12.0745538423
 C        -1.6339271931        6.7482196018      -10.5362032255
 C        -1.4279192727        5.1198390910      -10.5952156814
 O        -1.1708868682        4.5661653239      -11.6194399577
 C        -1.7448323224        4.3707838722       -9.2306913892
 C        -1.0751797263        2.9590261997       -9.3510788825
 C        -1.8088097546        1.9307971159      -10.1947550135
 O        -2.6612948403        2.2647610755      -11.0117205619
 C        -1.5415667335        0.4494608924       -9.8401839718
 C        -1.9199207252       -0.0415402104       -8.4215457853
 O        -1.0703273598       -0.4232232271       -7.6145944553
 C        -3.4650169518       -0.1119647972       -8.0149726648
 C        -3.7625943177       -1.0318035029       -6.7474128864
 C        -3.6024038507       -2.4856619047       -7.0124553536
 O        -4.1636871964       -3.0262741621       -7.9241665184
 C        -2.7300867237       -3.3352110925       -5.9716712399
 C        -1.6917739862       -4.1821806863       -6.8832183133
 O        -2.0873604211       -4.8904730829       -7.8430605192
 C        -0.2267679681       -4.2617634938       -6.4057297683
 C         0.5428907354       -4.8637551451       -7.5759197999
 C         0.5166291199       -6.4357805842       -7.3969393606
 O         0.0086281339       -6.9836685071       -6.4448565838
 C         1.0938878492       -7.3930815253       -8.6302869145
 C        -0.2888864751       -7.8895965379       -9.2639658536
 O        -0.7894942255       -7.1932250286      -10.1320859300
 C        -1.1112198157       -9.0914011975       -8.6943670527
 C        -2.3638311081       -9.3145939532       -9.5120240157
 C        -3.4503087062       -8.2330372553       -9.3164659308
 O        -3.4407683586       -7.4981328779       -8.4222132913
 C        -4.6652499581       -8.2580010464      -10.4612460849
 C        -5.8101820373       -7.2502482851       -9.9745042772
 O        -5.5272431301       -6.0615311153      -10.1831681820
 C        -7.0580552977       -7.6623149385       -9.3789231195
 C        -7.6856860386       -6.6812440489       -8.4384456630
 C        -7.1838992138       -6.7254182202       -7.0039841458
 O        -6.0540985282       -6.3299401609       -6.7326404765
 C        -7.9420905152       -7.3543534969       -5.7910409474
 C        -7.9567819678       -8.9280769798       -6.0407102861
 O        -7.1128500511       -9.4196856590       -6.7086944084
 C        -9.1750605659       -9.7294634176       -5.4369002652
 C        -9.1599164814      -11.1636694683       -5.9333434432
 C        -9.2402653853      -11.3400457632       -7.4699015140
 O        -8.1873558692      -11.2735091085       -8.0588384027
 C       -10.6031364746      -11.6065441678       -8.2540284996
 C       -11.4993768978      -10.3958329317       -7.9934665106
 O       -11.2198750377       -9.2343867432       -8.3584789193
 C       -12.8828940019      -10.7115173240       -7.4763044720
 C       -13.4367369034       -9.5796615634       -6.6164076048
 C       -13.6961861170      -10.0769091036       -5.2007625060
 O       -12.9214805355      -10.8334231594       -4.7252962934
 C       -14.8615334841       -9.4800955827       -4.3648259642
 C       -14.6617973743       -8.0167975890       -4.1828056022
 O       -14.9498194397       -7.3097475155       -5.1239074842
 C       -14.3157449913       -7.5967212944       -2.8213343499
 C       -16.1893510478       -9.7417333070       -5.1524423470
 C       -14.8150764528      -10.2339077859       -3.0122854638
 C       -10.2334298689      -11.7209152917       -9.7841229100
 C       -11.0667227308      -13.0069754053       -7.7417779930
 C        -7.2321134944       -7.1501056808       -4.4323455284
 C        -9.3965843033       -6.7822881367       -5.7013170535
 C        -4.1975156074       -7.7485424508      -11.7823567668
 C        -5.1444052460       -9.6640420936      -10.5549122150
 C         1.9674416286       -6.6070919411       -9.6416362967
 C         1.7670388414       -8.6033221043       -7.8670377503
 C        -1.9269318165       -2.5830968798       -4.8342893897
 C        -3.5819791860       -4.3613635446       -5.2772830397
 C        -2.3064643264       -0.3612609835      -10.9493813404
 C        -0.0187520952        0.0837171335      -10.0989274969
 C        -2.1608729035        7.2188745122       -9.1820488918
 C        -2.7507779333        7.1298666321      -11.5545168204
 C         3.4843566721        4.3025715775       -8.6794343446
 C         4.4350133340        6.6668667049       -8.5645077926
 C         4.8161526877        1.6228843566      -15.5807153989
 C         5.3004191305        4.0261727210      -15.8919275391
 C        -3.1310429830        3.4515478617      -15.6741969599
 C        -2.0727215637        3.0508318224      -17.9122450713
 C         0.3230170176        9.9583980682      -16.7912535497
 C         1.2825297190        9.0140265641      -14.5630855601
 H        -2.3458563792       10.5947440671      -15.9968043947
 H        -1.3735089499       11.0729960940      -14.6683903067
 H        -2.8882112669       10.1359516707      -14.4344035774
 H         0.3470025938        7.4817402961      -18.4077565693
 H        -1.2872742276        7.8301631783      -17.8095420924
 H         0.1285482168        5.1302626108      -17.3789458584
 H        -0.9596918457        5.6158706285      -18.7197203303
 H         0.7947503738        2.9155269178      -17.4296019078
 H        -0.1106142393        1.4471108175      -16.6311159969
 H         2.0289543289        1.1841092843      -15.6689797507
 H         1.6431197613        2.3178370614      -14.5474366943
 H         3.8687775170        5.2613075956      -13.8059690418
 H         5.1744766135        4.7172731362      -12.7721064398
 H         3.1035123150        3.5166212833      -11.4651338158
 H         2.3138699051        5.0251350390      -12.1101756505
 H         2.3307423086        7.8728585185      -11.0034905758
 H         2.3713506690        8.4873052616       -9.3449902174
 H         0.4001882828        9.4138029603      -10.1440600850
 H         0.1093861005        8.0704274381       -8.9593254180
 H        -2.7779163728        4.3881862701       -9.0512153339
 H        -1.2002955240        4.9274463956       -8.4371286441
 H        -0.8543246179        2.5030044615       -8.3292828866
 H        -0.1223262283        3.1667886688       -9.7566967270
 H        -3.8875265355       -0.6933682193       -8.8812504485
 H        -3.9514091033        0.7778596045       -7.8398974410
 H        -4.6681749926       -0.8619449696       -6.2613880698
 H        -2.8693821862       -0.7549393957       -6.0408386714
 H        -0.1824017078       -4.9924332055       -5.6066259299
 H         0.2066382607       -3.3342031811       -6.1944635986
 H         1.4980247605       -4.4167444997       -7.5944183724
 H        -0.0474195108       -4.5285995721       -8.4810766126
 H        -1.2865641096       -8.9719386018       -7.5649086926
 H        -0.4149035681      -10.0130092222       -8.8610841212
 H        -2.8601881962      -10.2474857458       -9.1249656872
 H        -2.1168832916       -9.4953167889      -10.6790080781
 H        -6.9961024475       -8.6769939642       -8.8642584214
 H        -7.6584373404       -7.8217137126      -10.2749612686
 H        -8.7494578583       -6.9648811524       -8.4099101593
 H        -7.5019364663       -5.6919979705       -8.8670057335
 H       -10.0973876010       -9.1771915306       -5.7929584921
 H        -9.1703877622       -9.7634908842       -4.2910845711
 H        -9.8694441284      -11.7838667779       -5.3889291418
 H        -8.1701765949      -11.5325331463       -5.6687986018
 H       -12.8416721434      -11.6488551135       -6.9063118385
 H       -13.5778186810      -10.7961749533       -8.3200533395
 H       -14.2340848549       -9.0300870838       -7.0815402345
 H       -12.5803300636       -8.8590351350       -6.4202867444
 H       -14.9696178510       -8.0106007912       -2.0460714520
 H       -14.2844229191       -6.5517312948       -2.6659109525
 H       -13.3093389049       -7.9852789440       -2.5326570896
 H       -17.0641453904      -10.0843101267       -4.5248428621
 H       -15.8996157962      -10.4041940736       -5.9348674708
 H       -16.5198627445       -8.8296557283       -5.5898973806
 H       -15.6698686513       -9.8878765147       -2.3532374154
 H       -13.8761781055       -9.9211785274       -2.5585084700
 H       -14.7103055503      -11.2890046497       -3.1965778242
 H       -10.2812449669      -12.7426029415      -10.3084118844
 H        -9.2212166999      -11.4904211605       -9.7052395823
 H       -10.7881420007      -11.0471383662      -10.4341125615
 H       -11.5135686496      -12.9583558097       -6.7198085513
 H       -10.2460932755      -13.6923176359       -7.9079538032
 H       -11.8406994302      -13.2882844756       -8.3591642083
 H        -6.4320831032       -7.8642874046       -4.3124812417
 H        -8.0568803751       -7.3211259083       -3.7222990012
 H        -6.8186564943       -6.1624445675       -4.2915071364
 H        -9.3354128643       -5.7494773598       -5.3752296089
 H        -9.9796001106       -7.4307743070       -5.0736881574
 H        -9.7811707316       -6.9630097555       -6.6185560439
 H        -3.1315397843       -8.0680053195      -11.9191934559
 H        -4.3228524486       -6.6303082192      -11.8308652511
 H        -4.7945025635       -8.2862936067      -12.4990242635
 H        -4.3816849425      -10.3802435493      -10.7415778496
 H        -6.0151775958       -9.7993829835      -11.2253479123
 H        -5.6223643358       -9.8956112765       -9.5783801295
 H         2.8296040882       -6.1428343395       -9.1262242893
 H         1.3907106508       -5.8289879430      -10.2563507316
 H         2.3044782807       -7.3356636602      -10.4019389033
 H         1.0254711170       -8.8731270928       -7.1456048410
 H         2.6986511585       -8.4055046621       -7.3690159691
 H         1.8366022354       -9.4481901316       -8.4922021247
 H        -1.3854213593       -3.3460376587       -4.3253947142
 H        -2.6371447520       -2.3015116053       -4.0913424678
 H        -1.2059983206       -1.7749598724       -5.0313290447
 H        -4.4313249168       -3.8551606012       -4.7651029804
 H        -2.9585674736       -4.9748688555       -4.5407069862
 H        -3.8805169030       -5.0405023629       -6.1087261782
 H        -3.3858408837       -0.2700298207      -10.8788392024
 H        -1.9899300686       -1.3498113374      -10.9362916292
 H        -1.9599557314       -0.0080565739      -11.9499155239
 H         0.7487012178        0.7229607405       -9.5754868099
 H         0.1869545630        0.1811411993      -11.1739329114
 H         0.1562574091       -0.9554545948       -9.7888163242
 H        -1.3167332617        6.9223233883       -8.4271847449
 H        -3.1098397758        6.7827615482       -8.9488063143
 H        -2.1795893576        8.3175069550       -9.1991881050
 H        -3.6765878117        7.1756540150      -10.9400141431
 H        -2.9730361652        6.3473259575      -12.2740507584
 H        -2.4850766370        8.0039614334      -12.0733507124
 H         2.5649008748        3.6060858781       -8.6929104869
 H         3.7311888856        4.3730665022       -7.5930256096
 H         4.2953426677        3.7665837734       -9.1346306799
 H         4.3174867398        6.6995165783       -7.3923138369
 H         4.3003823128        7.6374162460       -8.9511247478
 H         5.5232035934        6.4848204096       -8.7170207376
 H         5.6343804359        1.5763246571      -14.8653825268
 H         5.2213665056        1.5133667871      -16.6258999064
 H         3.9898430307        0.8801056863      -15.4833183814
 H         6.0554907501        4.2688988274      -15.0660799849
 H         4.9400023493        5.0344432597      -16.1612232551
 H         5.8207488597        3.5971069193      -16.8124630533
 H        -4.0308841291        4.0393508893      -15.9979993800
 H        -2.8476939193        3.6691365099      -14.6757946340
 H        -3.4330176704        2.4746967568      -15.7349090213
 H        -2.0725382590        1.9670310684      -17.7076089771
 H        -1.3300467700        3.3460673952      -18.6694432850
 H        -3.1067675156        3.3795869254      -18.1519230798
 H        -0.4421483284        9.8492809156      -17.5254684848
 H         1.2770104621        9.8814953516      -17.2873524680
 H         0.1649616713       10.9281593202      -16.3484764172
 H         1.4238157275        7.9578150173      -14.2194949144
 H         0.9181326399        9.6700465183      -13.7745592739
 H         2.2366248505        9.3113658641      -14.8661017109
 Na       -0.8415983924        5.9402349244      -13.6760526369
 Na       -4.3734447948       -5.3094828915       -8.1798939723
