232

 C        -2.0688462923       10.2234017745      -15.1252762476
 C        -1.2008094710        9.0120333987      -15.0330827826
 O        -1.5956402774        8.0315420623      -14.3301113170
 C         0.2190684553        8.8729000375      -15.7033498443
 C         0.3850940005        7.4189444825      -16.3208859214
 O         0.8550219997        6.4453149662      -15.6579835108
 C        -0.1437032751        7.1644674305      -17.7401028512
 C        -0.7958524536        5.7711194905      -18.0408807503
 C        -1.8966328279        5.3817176173      -17.0711160608
 O        -2.7378055438        6.1981372268      -16.6905624982
 C        -2.0146990645        3.8666160586      -16.6330356453
 C        -0.6599705985        3.4484940923      -15.9661544063
 O        -0.3609716939        4.0108316990      -14.9176846710
 C         0.2482642537        2.3277731522      -16.4674901186
 C         1.6314023316        2.2912870533      -15.7883620442
 C         2.7980061917        3.2195571626      -16.2167144247
 O         2.7849709242        4.0093613117      -17.1183920180
 C         4.1478142307        3.1341349908      -15.3206360733
 C         3.7620821912        3.2054760835      -13.8733586356
 O         3.3220441485        2.2453221554      -13.1940915629
 C         4.0796413761        4.5266190741      -13.0930135869
 C         3.4286048055        4.5901222420      -11.7257723366
 C         4.1895306604        5.4779128618      -10.7194842877
 O         5.2716386416        5.9482265681      -10.9462758297
 C         3.4960741434        5.6827456844       -9.2885769908
 C         2.0729526153        6.2885604940       -9.4949571946
 O         1.1083607079        5.5836986515       -9.6258962043
 C         2.0103867324        7.8336488608       -9.7153764496
 C         0.5766125908        8.3614992122      -10.2289853618
 C        -0.1944064387        7.2616461015      -10.9074207428
 O         0.3614751253        6.8521885301      -11.9208009765
 C        -1.5901985469        6.7696998581      -10.4660298936
 C        -1.5047034884        5.1790377182      -10.5783689433
 O        -1.2492035628        4.7869063220      -11.7162445851
 C        -1.8167841713        4.3303113043       -9.3089545913
 C        -1.1424306380        2.9231774018       -9.2538375718
 C        -1.8121340791        1.8406974332      -10.1328974229
 O        -2.6497311117        2.1911142240      -10.9269242522
 C        -1.3925870224        0.2946968154       -9.9985273472
 C        -1.9603328905       -0.0047081365       -8.4752723272
 O        -1.0948354506        0.1623418708       -7.6393162650
 C        -3.4345987899       -0.1923184883       -8.2638449300
 C        -3.5229427951       -0.8196738048       -6.8113537194
 C        -3.5137102396       -2.4029764354       -6.9186708597
 O        -4.1322303008       -2.8566166818       -7.8848692503
 C        -2.7006976292       -3.3354721152       -5.9221669334
 C        -1.6443824551       -4.1183468850       -6.9230719363
 O        -2.0330562243       -4.5187472805       -7.9565395612
 C        -0.1592828292       -4.2365704883       -6.5164380308
 C         0.7511776594       -5.0600276128       -7.5754739477
 C         0.4907375185       -6.5825323817       -7.3905940739
 O        -0.0047168826       -7.0298610009       -6.3666984201
 C         0.9586867542       -7.6158180016       -8.5613697706
 C        -0.3944748665       -7.7568886273       -9.3321677689
 O        -0.8110465009       -6.9761531789      -10.1738965733
 C        -1.0991375945       -9.0106920459       -8.8784966328
 C        -2.3988216321       -9.3314255738       -9.6605103478
 C        -3.5540436739       -8.3003723798       -9.4347469861
 O        -3.3868139337       -7.5198497866       -8.4617988114
 C        -4.7606083785       -8.1985554973      -10.3867622056
 C        -5.8146912501       -7.2429184925       -9.9563428938
 O        -5.5999489886       -6.0398252262       -9.9146099650
 C        -7.2084968931       -7.7121479925       -9.3091047932
 C        -7.8331499285       -6.6048746453       -8.3406016003
 C        -7.2430049708       -6.6739087873       -6.9644428372
 O        -6.1540273116       -6.2102588424       -6.7369783679
 C        -8.2005865930       -7.2678031374       -5.9543654760
 C        -8.1161408222       -8.8435441795       -6.1606844278
 O        -7.0825923681       -9.2317725783       -6.6537483915
 C        -9.2228398952       -9.7204555121       -5.5100940776
 C        -9.2144532465      -11.1933726785       -6.0468172966
 C        -9.1126832119      -11.3817049171       -7.5514209363
 O        -8.0342521339      -11.3733656841       -8.1032809375
 C       -10.5315467679      -11.8280233030       -8.1823964455
 C       -11.5271866381      -10.5636199567       -7.7731081240
 O       -10.8985347874       -9.5399814724       -7.7831658565
 C       -13.0735526513      -10.7383937367       -7.6311798725
 C       -13.5480168950       -9.6083930768       -6.6526588050
 C       -13.6180094867      -10.0750952494       -5.2084423044
 O       -12.8142443197      -10.9431629261       -4.8429959852
 C       -14.7586082972       -9.5256882133       -4.2575657256
 C       -14.7916733573       -7.9555939124       -4.0319619767
 O       -15.1344605819       -7.2261490503       -4.9457353260
 C       -14.4017629550       -7.2312107356       -2.7348131579
 C       -16.0938193581      -10.0268845890       -4.9060999301
 C       -14.7202549032      -10.3927668818       -2.9735254140
 C       -10.4370494933      -11.8663394729       -9.6499213140
 C       -10.9269506280      -13.2233404554       -7.5511078850
 C        -7.6302482322       -7.0535385887       -4.4736414126
 C        -9.5945003227       -6.6071946355       -5.9995226164
 C        -4.1473207829       -7.7703727332      -11.7275777505
 C        -5.2593657334       -9.6257376449      -10.5577825604
 C         1.9954584590       -7.0167308497       -9.5935150395
 C         1.7231887103       -8.8254954106       -7.8520433918
 C        -2.0230284322       -2.4274226045       -4.8467108100
 C        -3.6319262389       -4.3929356593       -5.2705757391
 C        -2.0671667876       -0.5921705792      -11.0040502475
 C         0.1404707544        0.1359707266       -9.9932257355
 C        -1.9953977681        7.2826754524       -9.0737571109
 C        -2.7334881311        7.2229889288      -11.4560153632
 C         3.1548961183        4.3274510086       -8.5560692489
 C         4.4206865938        6.6277303064       -8.4484025434
 C         4.7722064639        1.7400355438      -15.4592232841
 C         5.1201209062        4.2619936938      -15.6983697198
 C        -3.1181973625        3.6853444887      -15.6296398771
 C        -2.4155190097        3.0396377860      -17.9814966819
 C         0.5308200528       10.0380672196      -16.7910973913
 C         1.2958216653        9.1519786962      -14.6274371952
 H        -2.0376975866       10.6364859215      -16.1441212365
 H        -1.7909429581       11.0663699928      -14.5150399288
 H        -3.1271619188       10.0304071742      -14.9390073934
 H         0.7699575594        7.1777820859      -18.4190386986
 H        -0.8317248187        7.9205734325      -18.0877273661
 H        -0.0714169324        4.9213188592      -17.9157011065
 H        -1.1026696959        5.9033782435      -19.0515045657
 H         0.4034060413        2.4363935275      -17.5280873464
 H        -0.2994391470        1.4318452392      -16.1771773696
 H         2.0251441337        1.2813960293      -15.8364188639
 H         1.6340943782        2.3414312948      -14.6970766356
 H         3.7770234148        5.4621311365      -13.7026416640
 H         5.1803230867        4.5739134641      -12.9494817359
 H         3.4799861834        3.5778660805      -11.2444664504
 H         2.3610065931        4.9319159602      -11.8070816211
 H         2.7131530499        8.1962470370      -10.4812553618
 H         2.1905125604        8.3893419051       -8.7891973701
 H         0.8892551773        8.9870612226      -11.0168930482
 H        -0.1461485777        8.8437280673       -9.4606857963
 H        -2.9686798195        4.2948063655       -9.1651309753
 H        -1.3455996872        4.8577668331       -8.4739535057
 H        -1.0431789955        2.7307313398       -8.2336046436
 H        -0.0465878572        2.9479188125       -9.5818038912
 H        -3.9939180036       -0.7927328517       -8.9462029416
 H        -3.8458002397        0.8713588555       -8.1950247348
 H        -4.5510534041       -0.5779823382       -6.4216446293
 H        -2.7966633127       -0.3146354901       -6.1975878969
 H        -0.1197301705       -4.9926494184       -5.7165069764
 H         0.2575572537       -3.2153522872       -6.1844173221
 H         1.8491648077       -4.9430777264       -7.3168800372
 H         0.5293733223       -4.7105354175       -8.5446616293
 H        -1.0522587030       -8.8077023493       -7.8376464116
 H        -0.4792535035       -9.8326269138       -9.0658736646
 H        -2.7567599548      -10.2965060183       -9.4049889802
 H        -2.0670280229       -9.3064841249      -10.6216583546
 H        -7.2316429545       -8.6536197314       -8.7874501180
 H        -7.9041537302       -7.8624615963      -10.1900392051
 H        -8.9393854996       -6.7562129673       -8.3283962122
 H        -7.5322872678       -5.5579275549       -8.7009318415
 H       -10.1615012665       -9.2503070668       -5.6683759302
 H        -9.0191573304       -9.7659669156       -4.4760305008
 H       -10.1566325692      -11.6366370838       -5.7250779661
 H        -8.4422553754      -11.7906505189       -5.5368385459
 H       -13.3318366645      -11.7572861454       -7.4099776350
 H       -13.5226532651      -10.4430211584       -8.5887356422
 H       -14.5436372542       -9.1930042249       -6.9998681758
 H       -12.8410313866       -8.7800400180       -6.7344033712
 H       -15.2453416639       -7.2831524884       -2.0549524669
 H       -14.3602652258       -6.1227147552       -2.9558130453
 H       -13.5521344822       -7.4428362995       -2.1477302035
 H       -16.8913611532       -9.8821428815       -4.2478543371
 H       -16.0491368883      -11.0922090477       -5.1744840647
 H       -16.2482486134       -9.4370859733       -5.8239662007
 H       -15.4406299345      -10.0591113572       -2.2669852922
 H       -13.7167088758      -10.4056456134       -2.5535792433
 H       -14.8718522913      -11.3967707744       -3.3425453163
 H       -11.4018756900      -11.8873067926      -10.0434882278
 H        -9.8051215477      -12.7700196381       -9.9937573762
 H        -9.9821240569      -10.9595556413      -10.0496720120
 H       -11.3645754811      -13.1351698760       -6.5665007006
 H        -9.9218278697      -13.7016458039       -7.4770046549
 H       -11.5461514668      -13.9159364521       -8.2555168492
 H        -6.5658957027       -7.0777759711       -4.5503327386
 H        -7.9986972143       -7.7687523589       -3.7941252082
 H        -7.9978444563       -6.1070094058       -4.0498834233
 H        -9.4256148120       -5.5726900345       -6.1672161193
 H        -9.9533379791       -6.8016390609       -5.0113077545
 H       -10.3541147052       -7.1653416225       -6.6332122121
 H        -3.3727879375       -8.4785275498      -11.8982369085
 H        -3.7389832066       -6.8237502589      -11.5193119662
 H        -4.8352508153       -7.7919912717      -12.5594699125
 H        -4.4379791777      -10.1641132116      -11.0890630862
 H        -6.1093395478       -9.6687635941      -11.2686549132
 H        -5.5009970283      -10.1796174025       -9.6797400094
 H         2.9317324460       -6.6096591854       -9.1610855694
 H         1.5114407481       -6.2323732158      -10.0955900024
 H         2.2815647104       -7.7872013860      -10.3223178596
 H         1.1983484870       -9.3177994013       -7.0482867246
 H         2.6059976146       -8.3877223448       -7.4362837198
 H         2.0111075711       -9.5511720962       -8.6587342418
 H        -1.4948530742       -3.0063090175       -4.0443697676
 H        -2.7427752712       -1.7471226564       -4.3455763507
 H        -1.2313993626       -1.7993633649       -5.2856423985
 H        -4.2518866217       -3.8470692602       -4.6130093882
 H        -2.9897843476       -5.0410280319       -4.7599072092
 H        -4.0934812203       -5.0795718613       -5.9658977191
 H        -3.1181475731       -0.8052124961      -10.7357261193
 H        -1.4922489381       -1.5613112667      -11.2410084958
 H        -2.0686522519       -0.1363951227      -11.9756730122
 H         0.4982717095        0.7769367922       -9.2206293197
 H         0.5925151142        0.4955738275      -10.9190495058
 H         0.5251612528       -0.8705936209       -9.7960142925
 H        -1.2907943284        7.1707424290       -8.3380059840
 H        -2.9441433831        6.7351226194       -8.8447876486
 H        -2.1462075021        8.3587232310       -9.1528573018
 H        -3.5957649867        7.5059152885      -10.9599878545
 H        -3.0160125553        6.4040602241      -12.0875854053
 H        -2.3148208120        8.0102785038      -12.1199302577
 H         2.1015396753        4.3228602799       -8.6715404279
 H         3.3018022877        4.3861183681       -7.4969668023
 H         3.5174034804        3.3331796739       -8.8401357516
 H         3.9205531499        6.8194479827       -7.5740538607
 H         4.7628888423        7.6230097983       -8.9153150005
 H         5.3546630947        6.1976192550       -8.1347219785
 H         5.7796821063        1.8579570835      -15.1025086134
 H         4.7979127646        1.4756043141      -16.4608771198
 H         4.1611272602        1.0251100246      -14.9881503222
 H         5.7053818339        4.5439473158      -14.8984558379
 H         4.7350674035        5.1282011242      -16.1320506520
 H         5.7669785266        3.8411934742      -16.4118850936
 H        -3.9912345650        4.2104683696      -15.8484703886
 H        -2.6633091784        4.0352656378      -14.6584318718
 H        -3.4066876138        2.6050014608      -15.4287170757
 H        -2.5111313025        2.0502879099      -17.5959540334
 H        -1.4846311560        3.1359987490      -18.5242466746
 H        -3.2905863483        3.3186113924      -18.5235074653
 H        -0.2622674657       10.1754656023      -17.5434293776
 H         1.4098943948        9.6866492747      -17.3292556397
 H         0.5644441372       11.0076894474      -16.2705826791
 H         1.2240889333        8.4368206018      -13.7898080399
 H         1.2255213350       10.1850121356      -14.2728868657
 H         2.3208661534        8.9750241366      -15.1224072782
 Na       -0.5724971355        5.8983847238      -13.8040364341
 Na       -4.3727365199       -5.3818166877       -8.2121397729
