232

 C        -1.9547794228       10.1845598851      -15.2976684794
 C        -1.1352071785        8.9296503602      -15.1113945403
 O        -1.5304609535        8.0735368018      -14.3531201103
 C         0.2868134679        8.8492018860      -15.7660065103
 C         0.3050083270        7.3835846822      -16.3497721499
 O         0.8141863442        6.5319817642      -15.6621470536
 C        -0.1011615522        7.1926024043      -17.8232640310
 C        -0.7313577629        5.7976108933      -18.2038420009
 C        -1.8511321203        5.3831017517      -17.2004847409
 O        -2.6279369861        6.1861055887      -16.8291415348
 C        -1.9304917925        3.8552273102      -16.6849043662
 C        -0.6747322997        3.4166296635      -15.9262048279
 O        -0.5192207439        3.8296909239      -14.8029746210
 C         0.2577558107        2.3624616916      -16.5846672358
 C         1.6320883588        2.2847320427      -15.8840962052
 C         2.7613432010        3.2251175982      -16.2205139817
 O         2.7754531120        3.9664844650      -17.2229544619
 C         4.0477995220        3.1383442476      -15.3303245231
 C         3.7143983071        3.1670558727      -13.7209681379
 O         3.2968086162        2.1902119476      -13.2131702495
 C         3.9905474943        4.5785257516      -12.9832598737
 C         3.3992003828        4.5787369746      -11.5716819406
 C         4.2297818627        5.4636074410      -10.6130535888
 O         5.2466560108        6.0576550259      -10.9730578369
 C         3.4214206763        5.7016352493       -9.1329383409
 C         2.1300701008        6.3905561391       -9.5495877802
 O         1.1200044867        5.6737412241       -9.6779064304
 C         1.9816341544        7.8437968126       -9.6032031958
 C         0.6935053649        8.4622462224      -10.1906444001
 C        -0.0470090894        7.1852109571      -10.9147854185
 O         0.4033619236        6.6795197749      -11.8931325681
 C        -1.5667409306        6.7426667088      -10.4436991638
 C        -1.4770061763        5.1631775852      -10.6458473829
 O        -1.3432036626        4.6588995309      -11.7326012082
 C        -1.7852510550        4.2919731032       -9.4152408841
 C        -1.0964605546        2.9478423297       -9.3686851567
 C        -1.7856235393        1.8447631341      -10.2145405506
 O        -2.7632389508        2.0066483436      -10.9522968841
 C        -1.3477248558        0.3777658841       -9.9774845494
 C        -1.8911861966        0.0956299474       -8.4858471096
 O        -1.1601768541        0.3950020612       -7.5521647230
 C        -3.3438572532       -0.2319753617       -8.2331854650
 C        -3.5286458307       -0.9049452836       -6.7615128125
 C        -3.6106484393       -2.4017403518       -6.9466547722
 O        -4.2602954089       -2.9112241900       -7.8334767028
 C        -2.6204642899       -3.1723384546       -5.9995619855
 C        -1.5752822701       -4.0344058511       -6.9569902738
 O        -2.0098995016       -4.5049490239       -8.0166604291
 C        -0.0942908162       -4.1749469246       -6.5528846802
 C         0.7210998442       -5.1177913096       -7.4676274280
 C         0.6111850522       -6.6163909375       -7.3489742378
 O         0.0130595621       -7.0644063796       -6.4029599248
 C         1.0177504464       -7.5615228566       -8.5526541789
 C        -0.3750658610       -7.8883908739       -9.3186258006
 O        -0.7780697048       -7.0268064315      -10.0825718749
 C        -1.2880377967       -9.1558014559       -8.9637151063
 C        -2.5158796260       -9.3672145257       -9.7599410247
 C        -3.5629566625       -8.2334608213       -9.3650011879
 O        -3.4088225878       -7.4150124636       -8.4970448976
 C        -4.7722300834       -8.2940029626      -10.3948391229
 C        -5.7878927408       -7.1877389135       -9.7694202354
 O        -5.5407270052       -6.0323619514       -9.8776666918
 C        -7.1170474844       -7.6781338324       -9.2882074985
 C        -7.8862837598       -6.6092973423       -8.5510623990
 C        -7.3322974543       -6.5392174174       -7.0796943697
 O        -6.2406611993       -6.1631574964       -6.6815732990
 C        -8.2772693340       -7.1880580340       -5.8916422113
 C        -8.1003312332       -8.8138119554       -6.1046614868
 O        -7.1479829017       -9.2345992901       -6.6493229554
 C        -9.1892098227       -9.6567606821       -5.5276528216
 C        -9.0858867869      -11.1283151660       -5.9738363541
 C        -9.1427664378      -11.5069567395       -7.4705772984
 O        -8.1928119562      -11.4431865288       -8.2362522165
 C       -10.5080065191      -11.9124572489       -8.1045370573
 C       -11.4046748536      -10.6346362318       -7.6729438805
 O       -10.9128384871       -9.5404452615       -7.4971282189
 C       -12.8899671094      -10.6330687186       -7.6877778536
 C       -13.6839118914       -9.6832876802       -6.7652656316
 C       -13.6036507833      -10.1114826423       -5.2662921881
 O       -12.7684658391      -10.8339506141       -4.8460356528
 C       -14.7477704315       -9.6193681494       -4.1538670497
 C       -14.7872705773       -7.9740267359       -4.0316823055
 O       -15.1894894597       -7.3481791030       -4.9808915375
 C       -14.4367288651       -7.2502554286       -2.6797108851
 C       -16.0915584004      -10.0823096890       -4.8128297122
 C       -14.6075323456      -10.3474533255       -2.7869906081
 C       -10.4896276601      -12.0775758471       -9.6928131386
 C       -10.9728194540      -13.2891103111       -7.5632156366
 C        -7.6925919987       -6.8746560085       -4.4373555008
 C        -9.7344244115       -6.6754330134       -6.1260003452
 C        -4.1949382362       -7.6595226112      -11.7094282248
 C        -5.4459715348       -9.7298942586      -10.6000873431
 C         2.0795608906       -6.9559836657       -9.4829814528
 C         1.5340582070       -8.8821246600       -7.9770993211
 C        -1.9950705050       -2.4353649043       -4.8585937461
 C        -3.5657076220       -4.2099655371       -5.1940732932
 C        -1.9058550302       -0.5537945379      -11.0886371642
 C         0.2242767329        0.2626805391      -10.0590723712
 C        -1.8865473388        7.3291475380       -9.0191068239
 C        -2.5740068270        7.2920426078      -11.4241720079
 C         3.2796184839        4.3440844130       -8.4514186595
 C         4.3829696247        6.5179357166       -8.1607793623
 C         4.7811221312        1.7074114656      -15.5581131574
 C         4.9079007633        4.2569300809      -15.8756738876
 C        -3.1102491243        3.8368159503      -15.5959220823
 C        -2.4159838274        3.0338624894      -17.8941427652
 C         0.4780011952       10.0129174892      -16.7618516578
 C         1.2792413523        9.1530551064      -14.5610257008
 H        -1.8613423919       10.7356730272      -16.2435330426
 H        -1.6429779778       10.9057332756      -14.5856419064
 H        -2.9965691806       10.0706581734      -15.1061304406
 H         0.8878703830        7.3732052785      -18.4377430127
 H        -0.8109547726        7.9226190673      -18.1242119354
 H         0.0279270247        4.9608107410      -18.3747698192
 H        -1.3196114591        6.0123878545      -19.1396591567
 H         0.3501650552        2.7124319231      -17.6107112498
 H        -0.2532063719        1.4258053939      -16.5247369659
 H         2.1245553442        1.3003376895      -16.0121554106
 H         1.5729125242        2.2211838588      -14.8157859833
 H         3.5398372351        5.4541054767      -13.4866864741
 H         5.1092559405        4.7770738312      -12.9836779409
 H         3.2797650106        3.6248248323      -11.1387348214
 H         2.4567690456        5.1049156135      -11.6185286389
 H         2.8365794264        8.2893683464      -10.1758012807
 H         2.0455991438        8.1560242710       -8.5378446840
 H         0.9760794103        9.3137763579      -10.9120725288
 H        -0.0173256795        8.6647300622       -9.4937667666
 H        -2.8702832874        4.1628608701       -9.4852972416
 H        -1.5024232589        4.7769453582       -8.4563958308
 H        -1.0750053393        2.7317279086       -8.2806482380
 H         0.0110296865        2.9600148166       -9.5896076768
 H        -3.7332233228       -1.0796038039       -8.9622242822
 H        -3.9338488432        0.6922860660       -8.3791051362
 H        -4.3256613228       -0.4821641315       -6.2027014894
 H        -2.5160457329       -0.6621467523       -6.1215814967
 H         0.1268351935       -4.5299060024       -5.5089556778
 H         0.2520925548       -3.1285877558       -6.7343569217
 H         1.7660871647       -4.9331637134       -7.2926731122
 H         0.4303557571       -4.7497318546       -8.4657520867
 H        -1.5055636197       -8.8498914320       -7.9842010452
 H        -0.7862442834      -10.0577676217       -8.9192434109
 H        -2.8756486812      -10.2692204385       -9.4134921236
 H        -2.2650461471       -9.4074477771      -10.8868181336
 H        -7.0314836468       -8.6101001252       -8.6621383492
 H        -7.6669054337       -8.0009437842      -10.1241351703
 H        -8.9056842475       -6.8793057778       -8.5550282824
 H        -7.7393649139       -5.6853425086       -9.0397469407
 H       -10.1109206019       -9.1906797727       -5.7870109669
 H        -9.1211734068       -9.6204111258       -4.4759705312
 H        -9.7931100343      -11.7239304554       -5.3815818197
 H        -8.0858771504      -11.4805667114       -5.6322607362
 H       -13.1982493311      -11.6465856628       -7.4820546686
 H       -13.2241088572      -10.3888137099       -8.7520224493
 H       -14.7247888058       -9.6554961255       -7.1060615754
 H       -13.3945349102       -8.6573869371       -6.8269550583
 H       -15.2662065528       -7.2533526648       -1.9590512807
 H       -14.1091454868       -6.2052649837       -2.7271367040
 H       -13.6170268527       -7.7487378284       -2.1771408234
 H       -17.0857547140       -9.7409803585       -4.3967919082
 H       -16.1786379627      -11.1804479571       -4.8167272990
 H       -15.9541335355       -9.7578899521       -5.8382502307
 H       -15.4927653373       -9.9219581581       -2.2105158159
 H       -13.6992031383      -10.2313842505       -2.2324467582
 H       -14.7588858495      -11.3440356920       -2.9895585567
 H       -11.3415445948      -11.4820529463      -10.1135845244
 H       -10.4907404665      -13.1380791560       -9.9806537134
 H        -9.5744239094      -11.6892257353      -10.1094388225
 H       -11.3090124195      -13.3294055296       -6.4492860854
 H       -10.0426846161      -13.8573087986       -7.6780714445
 H       -11.6756975064      -13.7261831514       -8.2641090618
 H        -6.6127155879       -6.7955730119       -4.4898811321
 H        -7.9869125466       -7.6677735663       -3.7219114353
 H        -8.2211592283       -6.0117019668       -3.9719677909
 H        -9.4846113805       -5.6845340858       -6.5769132372
 H       -10.4266314797       -6.6131208865       -5.2309529959
 H       -10.2066426410       -7.3577605694       -6.8247944517
 H        -3.7117918788       -8.3766455745      -12.3604677810
 H        -3.5370699090       -6.8520255194      -11.3188258259
 H        -5.0033109019       -7.2233024629      -12.2258821483
 H        -4.8868014753      -10.3744658512      -11.2178893000
 H        -6.4870910450       -9.7275677036      -11.1107346622
 H        -5.4638577735      -10.2282558723       -9.6352022119
 H         2.9973290526       -6.7349697333       -8.9148329704
 H         1.7910373331       -6.0295172455       -9.9306316805
 H         2.4134095319       -7.6970831953      -10.1633307487
 H         0.7472869660       -9.1519552995       -7.2445568127
 H         2.4586149590       -8.7636740644       -7.3822228768
 H         1.6303760894       -9.6936097490       -8.7701116182
 H        -1.4338118482       -3.1431067429       -4.2314197359
 H        -2.6340116106       -1.8352859731       -4.2534444495
 H        -1.1675990628       -1.7687560825       -5.2584627102
 H        -4.0990553577       -3.5935007537       -4.5242237401
 H        -2.9378469589       -4.9301713679       -4.7342048033
 H        -4.1126312944       -4.8881962272       -5.8467971548
 H        -2.9777911804       -0.8236417111      -11.1652166399
 H        -1.2982811218       -1.4460880626      -11.2008726185
 H        -1.5885867304       -0.0543792455      -12.0186350939
 H         0.7541614599        0.6262327725       -9.1791048654
 H         0.6430093490        0.6930662438      -10.9262574879
 H         0.4751641204       -0.7918118938      -10.1285631985
 H        -1.1202281910        7.1228168099       -8.2537319586
 H        -2.8313839571        6.9206588162       -8.7233951280
 H        -1.8941295236        8.3739006735       -9.0574481537
 H        -3.5812019602        7.3989008910      -10.9991896812
 H        -2.6639302381        6.6033924021      -12.2860597743
 H        -2.1731282181        8.2410378440      -11.8119649278
 H         2.3328721785        3.7951248132       -8.7498255134
 H         3.2989060282        4.4739074823       -7.4025456935
 H         4.1058408146        3.7243600490       -8.6041863958
 H         3.8024957310        7.2177093044       -7.5468156241
 H         5.0626584340        7.0857968409       -8.7110987623
 H         4.9700996001        5.9904527374       -7.4959700252
 H         5.8006169989        1.9656686067      -15.3868135519
 H         4.6904494586        1.4698991400      -16.5776395573
 H         4.3851044993        0.8524673064      -15.0223670170
 H         5.8527257117        4.3414771629      -15.3046993184
 H         4.4235511435        5.1593141862      -15.7934808517
 H         5.1292217591        4.1151925029      -16.9498002315
 H        -4.1421126587        4.1829226371      -15.9128501857
 H        -2.7112864931        4.4615122937      -14.7430970641
 H        -3.2087665260        2.8576352095      -15.1460041348
 H        -2.7261656513        2.0871827728      -17.6310109984
 H        -1.6842249603        3.1882825144      -18.6933711120
 H        -3.3408921498        3.5675257440      -18.1545742322
 H        -0.3602543444        9.8959358690      -17.4422860921
 H         1.3292899122        9.6928703647      -17.3761629598
 H         0.3833058986       11.0376870049      -16.3481543111
 H         0.9713770967        8.6481273763      -13.5502629446
 H         1.3377665736       10.2340842867      -14.4179851860
 H         2.2600401458        8.7879605885      -14.8529645041
 Na       -0.5330896996        5.8722438912      -13.8278951773
 Na       -4.3599552429       -5.3579640931       -8.2444307375
