232

 C        -1.9775273642       10.1715740860      -15.3933155149
 C        -1.1357200277        8.9372240486      -15.0685146182
 O        -1.4980046686        8.0405018513      -14.3846641440
 C         0.2978493321        8.8812233517      -15.8688574252
 C         0.4719931315        7.4379522161      -16.4066195995
 O         0.6992482990        6.4974304022      -15.7092284931
 C        -0.0541497473        7.2385400752      -17.8859082895
 C        -0.5612706756        5.8125043796      -18.1996585807
 C        -1.7523806857        5.4266668823      -17.2359029490
 O        -2.5611593034        6.2732744267      -16.9138625539
 C        -1.9544476222        3.9653941021      -16.7053670062
 C        -0.7012387219        3.3980394940      -15.9417198803
 O        -0.4623943975        3.5531833795      -14.7545969593
 C         0.3241378961        2.5342512982      -16.7406666056
 C         1.5317389547        2.1125691561      -15.9026276680
 C         2.6864612571        3.1148069251      -16.2489007802
 O         2.5735967893        3.8222433701      -17.2170312106
 C         4.0543559415        3.2268904850      -15.3883115768
 C         3.6956498817        3.2461496524      -13.7236070734
 O         3.2562406139        2.2514947060      -13.1760622116
 C         3.8792611027        4.4887419336      -13.0086467948
 C         3.3445555678        4.5110130096      -11.4841300721
 C         4.1232581817        5.5293033786      -10.4877433799
 O         5.1041686010        6.1344262559      -10.7911526646
 C         3.5330005164        5.6302537568       -9.0747930854
 C         2.1658988894        6.4200855225       -9.2906992119
 O         1.1721162220        5.7645296445       -9.6484589992
 C         2.0993112142        7.9795428483       -9.4276319841
 C         0.7941163295        8.2598313942      -10.1828513746
 C        -0.0228087026        7.1350133769      -10.9472686490
 O         0.5355534421        6.7930668036      -11.9824087775
 C        -1.4202698124        6.7606110027      -10.5425326486
 C        -1.5742008168        5.1768017544      -10.6554100342
 O        -1.4076507559        4.6354286680      -11.7291972915
 C        -1.8427825858        4.2391730421       -9.4145268582
 C        -1.0861772291        2.9059324217       -9.5856251229
 C        -1.8319069456        1.8394941823      -10.3125601187
 O        -2.8515453615        2.0054799313      -10.9330148643
 C        -1.2134990853        0.3752829189       -9.9740107631
 C        -1.7438396884        0.1987963231       -8.5174371934
 O        -1.1695125675        0.5602746637       -7.4856707194
 C        -3.2505887331       -0.2585822115       -8.3216291020
 C        -3.5441401709       -0.9221896809       -6.9633381039
 C        -3.4829463647       -2.4056490066       -6.9659361074
 O        -4.3479552057       -2.9923733063       -7.5789537250
 C        -2.4928006968       -3.2504311712       -5.9982727598
 C        -1.6036994447       -3.9908547584       -6.9539729974
 O        -2.0116002536       -4.5557591862       -8.0057596551
 C        -0.1196648435       -4.0934280368       -6.6194918563
 C         0.7121656374       -5.0109981597       -7.5442985848
 C         0.4634337575       -6.6373138709       -7.3197689899
 O         0.0301074475       -7.1959181700       -6.3496182084
 C         0.9548595052       -7.6022880181       -8.4906066084
 C        -0.3721626802       -7.8613547374       -9.2590745343
 O        -0.7976363572       -7.1361212083      -10.1109323644
 C        -1.2131109366       -9.1755021000       -8.8527139460
 C        -2.5028649594       -9.3123432855       -9.7033273261
 C        -3.5830551500       -8.3097124728       -9.4605510086
 O        -3.3861067431       -7.4888357537       -8.6136347374
 C        -4.8222826965       -8.2152555119      -10.3927278373
 C        -5.8932600083       -7.1992123889       -9.7969680390
 O        -5.4957543383       -6.0252356507       -9.9152163020
 C        -7.1642222977       -7.6903282381       -9.2224962434
 C        -7.8680264038       -6.6199996940       -8.4239113948
 C        -7.4277846263       -6.4974117176       -7.0535105584
 O        -6.2856689514       -6.0108264496       -6.8693439812
 C        -8.2989104046       -7.0897093963       -5.9385248856
 C        -8.1563941068       -8.7104552740       -6.0816698462
 O        -7.1622812505       -9.1720869764       -6.6401829708
 C        -9.0776213439       -9.7328622086       -5.3791547136
 C        -8.8891983670      -11.1919338352       -5.8963851981
 C        -9.1152056882      -11.4920354699       -7.4861380491
 O        -8.2109179984      -11.4866366501       -8.2887845742
 C       -10.6044693322      -11.8652064523       -8.0200564379
 C       -11.4643166612      -10.6558513368       -7.7046490608
 O       -10.8518199274       -9.6093993488       -7.4185910415
 C       -13.0426807954      -10.7468770675       -7.7206171016
 C       -13.8102317163       -9.8249025806       -6.7276572818
 C       -13.5698702457      -10.0670456240       -5.1859214817
 O       -12.6280216724      -10.7567233151       -4.8486228004
 C       -14.8046393441       -9.6993451028       -4.1843480927
 C       -14.8148206873       -8.1593065135       -4.0752563875
 O       -15.1727272295       -7.4652429850       -5.0027509309
 C       -14.4800940247       -7.4888092201       -2.8055920147
 C       -16.1983800357      -10.0414798999       -4.6960446586
 C       -14.4247578193      -10.1936198817       -2.7495396112
 C       -10.5347018926      -12.0694828239       -9.5823573498
 C       -11.1245333765      -13.2397839598       -7.3980492706
 C        -7.8280326582       -6.6803452658       -4.5902723546
 C        -9.8490563445       -6.8052310934       -6.1853919174
 C        -4.3251316157       -7.5989628986      -11.7529766527
 C        -5.4844011712       -9.5549249416      -10.6052520890
 C         2.0428101382       -6.9159041809       -9.3438589489
 C         1.4198728345       -9.0178847516       -7.9714686340
 C        -1.7903085662       -2.4235122442       -4.9949620416
 C        -3.5356723445       -4.2583961628       -5.1757410208
 C        -1.8129777025       -0.5152282491      -11.0854062508
 C         0.2988403727        0.4144806540       -9.9839848687
 C        -1.7115379966        7.1851550206       -9.0409520160
 C        -2.4238552966        7.4474684525      -11.4995908273
 C         3.3744795358        4.2491028694       -8.4550780696
 C         4.3737399969        6.5550102148       -8.0600886766
 C         4.6954644634        1.7983372005      -15.6889659771
 C         4.9240628679        4.3158305745      -15.9061239036
 C        -3.1469264718        4.0490812769      -15.6120492986
 C        -2.3619751001        2.9655093370      -17.8570279208
 C         0.4813202273        9.9512427459      -16.9257427785
 C         1.2538338909        8.9592530439      -14.5683821091
 H        -1.9115295750       10.5077959983      -16.3889669593
 H        -1.6318967243       11.0397033802      -14.8118305478
 H        -3.0120908681       10.1025329143      -15.0999130459
 H         0.6683777466        7.5376767161      -18.6003844574
 H        -0.9348938306        7.9705943685      -17.9550625674
 H         0.2988751769        5.1599540534      -18.1376682381
 H        -1.1075345048        5.7087256249      -19.2170139858
 H         0.5246847433        3.0972089805      -17.6670011759
 H        -0.2453065423        1.6154515312      -16.9792228191
 H         1.9082975781        1.0908841404      -16.0507741796
 H         1.2858263639        2.0309867632      -14.8426757842
 H         3.5186331398        5.3689903141      -13.5010945738
 H         4.9747432173        4.6237180597      -13.0006931462
 H         3.6116744170        3.5972985269      -11.0468678145
 H         2.3029693406        4.6835045442      -11.4060136702
 H         2.9441227032        8.2891758392      -10.0411502812
 H         2.0670648070        8.5365867368       -8.4717102966
 H         0.9381167321        8.9395433740      -11.0656717783
 H         0.0058171988        8.6256631453       -9.5638320737
 H        -2.8752820415        4.1017401083       -9.4639392222
 H        -1.5102570951        4.6285628506       -8.4467464067
 H        -0.7222456197        2.6184176718       -8.5107843238
 H        -0.1458702478        3.0179591691      -10.0670996508
 H        -3.6029133238       -1.0555735203       -9.0531153084
 H        -3.9067898556        0.6172465063       -8.4138546245
 H        -4.5713818583       -0.6159629883       -6.6861945529
 H        -2.8940761042       -0.4948265769       -6.2008095862
 H         0.0356968983       -4.5714728874       -5.6299917577
 H         0.2075734632       -3.0802441594       -6.6162486230
 H         1.7515600534       -4.8763019457       -7.3929037778
 H         0.3998643955       -4.6664645873       -8.5633512649
 H        -1.2937933145       -9.3045165289       -7.7599916905
 H        -0.6005890643      -10.0299650680       -9.2733833779
 H        -2.8540672077      -10.3781856462       -9.4614014587
 H        -2.2532661409       -9.1678965986      -10.8382814327
 H        -6.7639383294       -8.5589644052       -8.6771100070
 H        -7.8414628165       -8.1108729590       -9.9379152148
 H        -8.9048420178       -6.6986793377       -8.5776480012
 H        -7.5683194343       -5.7407470981       -8.8804851732
 H       -10.1663520347       -9.4856464315       -5.4186141626
 H        -8.7644677430       -9.6915153947       -4.3070545346
 H        -9.4755962351      -11.8597670231       -5.2369633620
 H        -7.8547166664      -11.4898995487       -5.7144215411
 H       -13.2695016939      -11.8362573772       -7.5001550371
 H       -13.4034439401      -10.5404356276       -8.7471596427
 H       -14.8215293415       -9.6645980378       -6.9230929685
 H       -13.3712313882       -8.8245256633       -6.8701374735
 H       -15.2921337616       -7.3776816703       -2.0821176191
 H       -14.0670559319       -6.5363252751       -2.9070963404
 H       -13.6305702768       -8.0288670110       -2.3006091998
 H       -16.9736482186       -9.6908854354       -3.9334823225
 H       -16.3393671240      -11.1320874849       -4.5319712101
 H       -16.4225945508       -9.7554136412       -5.7249813838
 H       -15.2110022259       -9.8521908253       -2.0790572874
 H       -13.4964941883       -9.7351423817       -2.4466515929
 H       -14.2904257523      -11.3039227145       -2.7276530756
 H       -10.9116889058      -11.2017528357      -10.2381150875
 H       -10.9233003703      -12.9894222589       -9.8260650482
 H        -9.4565115091      -12.2631632610       -9.7947511107
 H       -11.1145169961      -13.2015541879       -6.2656192548
 H       -10.5216450829      -14.0909999665       -7.7526858584
 H       -12.0852321683      -13.3303951255       -7.7807045119
 H        -6.7021581825       -6.6310680587       -4.5577347724
 H        -8.2119916403       -7.3812661145       -3.7787258910
 H        -8.3526769789       -5.7820621146       -4.2997363668
 H        -9.8391940739       -5.7258723928       -6.5216441924
 H       -10.4693057838       -6.9869677497       -5.2701934449
 H       -10.1697983125       -7.4900672540       -6.9476518799
 H        -4.1776257378       -8.3500600572      -12.5493736115
 H        -3.4619968635       -6.9468431899      -11.5394503873
 H        -5.1865637638       -6.9834193114      -12.0851119087
 H        -4.9450870878      -10.2935130536      -11.2017498516
 H        -6.4212457248       -9.5050082822      -11.0922967303
 H        -5.5066897580      -10.0441258884       -9.5827406250
 H         2.9207288675       -6.7101390396       -8.7733993192
 H         1.7201120386       -5.9150879392       -9.7279129192
 H         2.4552236492       -7.6019979961      -10.0624995520
 H         0.7012027434       -9.3184317322       -7.1577752805
 H         2.4271048873       -8.9443384545       -7.4531866741
 H         1.4425521025       -9.7293967088       -8.7773358168
 H        -1.1551935316       -2.9648082299       -4.3336400440
 H        -2.4740494931       -1.8114643658       -4.4109294546
 H        -1.1500102426       -1.6981695956       -5.5013644319
 H        -4.1032034767       -3.5479746009       -4.5708246240
 H        -3.0342286668       -5.1082755402       -4.6532410905
 H        -4.0681158517       -4.8436325003       -5.8815990085
 H        -2.8899898957       -0.3810580556      -11.1925049540
 H        -1.6405896016       -1.5444123299      -11.0141719275
 H        -1.3186580620       -0.2532618461      -12.0482200527
 H         0.8306591769        0.6827920191       -9.0735283307
 H         0.6853568017        0.9349750597      -10.8463019728
 H         0.6179086509       -0.5923973229      -10.2093536994
 H        -0.9056100421        6.8790599248       -8.2996642135
 H        -2.6164950900        6.7286201326       -8.7894771771
 H        -1.7581157526        8.2602834870       -8.8973882786
 H        -3.4515090609        7.0228478262      -11.1705451840
 H        -2.2755763346        7.1364528819      -12.5545859896
 H        -2.4101415250        8.5239703001      -11.4195210571
 H         2.9996950355        3.4947001266       -9.1446917899
 H         2.8435224217        4.2833819510       -7.4908441195
 H         4.3457283504        3.9000152080       -8.1044965779
 H         3.7844291328        7.4593332563       -7.7924135871
 H         5.2211117214        6.9277192946       -8.5133617355
 H         4.7201027701        6.1379368031       -7.1137019783
 H         5.7511448895        1.8893002643      -15.4928857083
 H         4.5387755449        1.5802081314      -16.8032444074
 H         4.1953711841        0.9742463126      -15.1566230144
 H         6.0431211829        4.1409802426      -15.8138635453
 H         4.6883266961        5.2507947475      -15.2426909952
 H         4.6529651031        4.6352732252      -16.9283596819
 H        -4.1737103107        4.0755073614      -16.1375456336
 H        -3.0745903252        4.8359986673      -14.8974669866
 H        -3.1180302534        3.1395993096      -15.0237233193
 H        -2.6304147005        1.9655964553      -17.4671678445
 H        -1.6669150443        3.1203179478      -18.6330373094
 H        -3.3397930778        3.3774013933      -18.1381816824
 H        -0.1945819302        9.7041365062      -17.7603942867
 H         1.4634658887        9.7316629183      -17.3071375224
 H         0.2233281550       10.9503962375      -16.5979879352
 H         0.8012563994        8.3569495803      -13.7474423317
 H         1.4353342859        9.9797070853      -14.1638523354
 H         2.1873398235        8.5369562492      -14.8807578603
 Na       -0.5685903097        5.8621119119      -13.7759368147
 Na       -4.3284933900       -5.2234283818       -8.1519359865
