232

 C        -1.9521807193        9.9680223752      -15.6253166205
 C        -1.1047263512        8.7670646790      -15.3035331130
 O        -1.5749983050        7.9667223230      -14.5607064228
 C         0.4324871529        8.7926313236      -15.8934032939
 C         0.4012171966        7.2885608053      -16.5866429204
 O         0.3597266300        6.4490475589      -15.7765378125
 C         0.2893906289        7.0172482048      -18.0635063538
 C        -0.2728161368        5.5494046960      -18.2373332638
 C        -1.4890001381        5.3885026359      -17.3540302135
 O        -2.1876564942        6.3348433051      -17.1605926958
 C        -1.9451458563        3.9711323428      -16.6827332637
 C        -0.7570395972        3.3581076280      -15.9012660462
 O        -0.4361026573        3.8138437900      -14.8211130757
 C         0.1128161325        2.2289694890      -16.4622048492
 C         1.5695137748        2.1713562306      -15.9841931552
 C         2.5818236726        3.3244593729      -16.2872776352
 O         2.3933800801        4.1050501895      -17.2306625602
 C         3.8209557070        3.2993062629      -15.3121261297
 C         3.4647011426        3.3694228138      -13.6570665226
 O         2.9854377024        2.3787840585      -13.1891689496
 C         3.8123703165        4.5548673363      -12.8766457276
 C         3.6608910391        4.2959279935      -11.4199544766
 C         4.1434688374        5.4274577098      -10.4642738560
 O         4.7590856434        6.3497775289      -10.9266688738
 C         3.5172003439        5.4509921352       -8.9318727492
 C         2.1965597540        6.1792025155       -9.2287946967
 O         1.1470492456        5.5187691319       -9.1175318742
 C         2.2699951076        7.7502209928       -9.3416286151
 C         1.0882383874        8.3854579951      -10.1071234964
 C         0.1670993859        7.3604569725      -11.0194546598
 O         0.6603510130        6.9362266838      -12.0365927107
 C        -1.2573472832        6.8748127251      -10.5370441884
 C        -1.4713467723        5.4069849448      -10.9092700303
 O        -1.5783219059        5.1758100742      -12.0974162851
 C        -1.7285731041        4.3021272659       -9.8142530880
 C        -0.9064898147        2.9874014205       -9.8647387908
 C        -1.7291637935        1.8052217898      -10.3232479431
 O        -2.8733178886        1.9517971427      -10.7001706298
 C        -1.1087702261        0.4083940509      -10.0362762136
 C        -1.6878061344        0.1343465268       -8.5615477583
 O        -1.1966710956        0.5636815961       -7.5202718306
 C        -3.0429582218       -0.6288664410       -8.5039163873
 C        -3.4579943171       -0.9516871191       -6.9461052370
 C        -3.6167127627       -2.3725550577       -6.7652788320
 O        -4.5188532263       -2.9968929377       -7.3169375240
 C        -2.5175929294       -3.1486082820       -6.0015038339
 C        -1.6210810935       -4.0661183967       -7.0499759380
 O        -2.1916023527       -4.8414752507       -7.8553535818
 C        -0.1981160789       -4.2774935598       -6.6533195392
 C         0.5446140205       -5.1672405659       -7.7106038063
 C         0.4206788447       -6.6558651991       -7.3735727177
 O        -0.0136950806       -7.0578904312       -6.3256370223
 C         0.8592502072       -7.7397950389       -8.3724532755
 C        -0.4841239304       -8.0501043817       -9.1926979770
 O        -0.6354219620       -7.3532888132      -10.1656698283
 C        -1.4289542439       -9.3035835231       -8.8789787013
 C        -2.5813497399       -9.3317247882       -9.8144654902
 C        -3.6458628394       -8.0813391268       -9.5480173078
 O        -3.4652927129       -7.2699712926       -8.6934835819
 C        -4.9304366839       -8.1036643306      -10.5975036099
 C        -5.9300838499       -7.0620584278       -9.9722679205
 O        -5.5589543077       -5.9260286472       -9.9386820915
 C        -7.2883982896       -7.4573777287       -9.5265110353
 C        -8.0537413636       -6.5368207017       -8.6447749528
 C        -7.5723725450       -6.4878041816       -7.1576630582
 O        -6.6170637485       -5.8026872448       -6.7948821838
 C        -8.4354492651       -7.2559990083       -6.0114610261
 C        -7.9002747111       -8.6974098016       -6.0533991137
 O        -6.8147011058       -8.9134827517       -6.5684934310
 C        -8.7993243989       -9.7310340493       -5.3870485132
 C        -8.6515428055      -11.2104778270       -5.8670583366
 C        -9.1899735282      -11.3345967392       -7.2824492440
 O        -8.3308744306      -11.3963228607       -8.1462261581
 C       -10.7008113730      -11.6627518596       -7.5429170962
 C       -11.7373452086      -10.5286568074       -7.4186247172
 O       -11.3694809065       -9.3635230523       -7.5172827730
 C       -13.2033239194      -10.8435132258       -7.5590646846
 C       -14.1246099257       -9.9891065428       -6.6976346357
 C       -13.6137506547      -10.2192433517       -5.2549239918
 O       -12.4540556505      -10.4692374778       -5.0376388919
 C       -14.6044495813       -9.9026131507       -4.0601651842
 C       -14.7232208671       -8.2883186673       -4.1123945060
 O       -14.9235161853       -7.9033838132       -5.2501371246
 C       -14.4762667276       -7.2887491103       -2.9931484104
 C       -16.0425744080      -10.5014779286       -4.4033016749
 C       -14.1456352356      -10.4744847420       -2.7760621718
 C       -10.8621014539      -12.1402338622       -9.0338899508
 C       -10.9403276704      -13.0293509764       -6.7386957092
 C        -8.1054065083       -6.5359768642       -4.6561704570
 C       -10.0210880719       -7.1449865692       -6.2302956615
 C        -4.3461880999       -7.5367473147      -11.9576598467
 C        -5.4525105932       -9.4992694765      -10.6921198913
 C         1.8263763119       -7.1553129036       -9.3683803409
 C         1.4579827332       -8.9660508886       -7.5223996530
 C        -1.5657291981       -2.1593639271       -5.2900116639
 C        -2.9661936206       -4.1626520097       -4.9347418114
 C        -1.4017662580       -0.6730442800      -11.1140173261
 C         0.4425727363        0.4798998360       -9.9716452935
 C        -1.4037331386        7.1961998256       -9.0675044613
 C        -2.2691286583        7.7791337689      -11.3600891102
 C         3.2466600395        4.1450640243       -8.1739072425
 C         4.5443250487        6.3028429080       -8.1752455589
 C         4.6154567801        1.9805103666      -15.4335643373
 C         4.7316289976        4.5348353191      -15.8461680547
 C        -3.0506513071        4.2544562723      -15.6681993534
 C        -2.5105671658        3.2332758135      -17.9347894370
 C         0.6013139520        9.9621480284      -16.9300075629
 C         1.4445549916        8.7700538165      -14.7500343198
 H        -2.5795528249        9.6768347286      -16.4897840087
 H        -1.5153712329       10.9184232001      -15.9149955249
 H        -2.6163691505       10.2587812026      -14.8168131203
 H         1.3527465826        7.0859164593      -18.4619385081
 H        -0.2952063986        7.7502803826      -18.6082404089
 H         0.4412042935        4.7550106958      -17.9938137874
 H        -0.5696897282        5.3835337930      -19.3135279543
 H         0.0536098644        2.2055902893      -17.5589142162
 H        -0.3911237183        1.3144868068      -16.1807686023
 H         1.9962657138        1.2104596000      -16.3608573386
 H         1.6435398269        2.0063486519      -14.9207095876
 H         3.1515518172        5.4084633512      -13.0957748309
 H         4.8500542121        4.9678399861      -13.1435181856
 H         4.1403118784        3.3189622426      -11.2076132075
 H         2.6086779354        4.2846155572      -11.0397451357
 H         3.2727129918        8.0258101909       -9.7363088005
 H         2.1909208571        8.1409026432       -8.3114911166
 H         1.2171602674        9.1280732089      -10.9614533260
 H         0.4738571770        8.9031785449       -9.4463856365
 H        -2.7765171270        3.9678593105      -10.0328395670
 H        -1.5853642728        4.7929951842       -8.7947941320
 H        -0.3770767250        2.7664391958       -8.8787103922
 H        -0.0693137079        3.1432159310      -10.5544112928
 H        -3.0631272267       -1.5998033068       -9.2098687360
 H        -3.7980220840        0.0179450671       -8.9648621484
 H        -4.3065749525       -0.3600328214       -6.6359575915
 H        -2.6291098544       -0.5124226617       -6.2684574451
 H        -0.1475886562       -4.6502424567       -5.5782087050
 H         0.3385342477       -3.3113071977       -6.6998629369
 H         1.5405449905       -4.7719339595       -7.7390390776
 H         0.1072415563       -4.8419544869       -8.6909637426
 H        -1.7468549706       -9.3348949841       -7.9032159962
 H        -0.7963691739      -10.1209759782       -9.0287839803
 H        -3.0696559624      -10.2013616356       -9.6011471160
 H        -2.3063633844       -9.2776748141      -10.8709191396
 H        -7.1895204184       -8.4184198706       -8.8912982635
 H        -7.8833564527       -7.7981675224      -10.3210340790
 H        -9.0827472485       -6.9788976027       -8.6529321484
 H        -8.2178670432       -5.5205985105       -9.0884859903
 H        -9.8103583817       -9.4173712597       -5.5226510390
 H        -8.6159045409       -9.6968795456       -4.3555251480
 H        -9.0213552351      -11.9358254338       -5.1320790000
 H        -7.5670920092      -11.3654286115       -5.9451480467
 H       -13.3151827643      -11.8481287127       -7.2321402829
 H       -13.4256410045      -10.9188596810       -8.6436392139
 H       -15.2195484868      -10.1199841704       -6.7620154126
 H       -13.9801361877       -8.9203440402       -6.8810801704
 H       -14.7343250665       -7.6363293723       -1.9857718453
 H       -14.9721710800       -6.3658780870       -3.1372674735
 H       -13.4007482350       -6.9815905709       -2.9738558130
 H       -16.7331087240      -10.5222211605       -3.5315359995
 H       -16.0360479311      -11.5102541507       -4.6832980075
 H       -16.4829231290       -9.8976580418       -5.1170190886
 H       -14.7666288870       -9.9827491164       -1.9652034447
 H       -13.1136696144      -10.2073306134       -2.6194692581
 H       -14.3084792270      -11.5144815251       -2.7074038952
 H        -9.8925438036      -11.8844290908       -9.5812718958
 H       -11.6429678045      -11.6121242842       -9.5199284863
 H       -11.1981232021      -13.1409498648       -9.1200087321
 H       -10.8803762335      -12.8578551923       -5.5854250075
 H       -10.0171637896      -13.6693257898       -6.8375506511
 H       -11.7950740304      -13.5558480562       -7.0998018257
 H        -7.2471406304       -6.9049874339       -4.1767487024
 H        -8.8954185930       -6.8263768300       -3.9706516971
 H        -8.1220441385       -5.4739146382       -4.7105021374
 H       -10.3104666649       -6.0612255969       -6.3149361315
 H       -10.6910932572       -7.6145831480       -5.4643851361
 H       -10.1297730976       -7.5362460941       -7.1830695501
 H        -3.4775186070       -8.1424023823      -12.1691441207
 H        -4.0511453892       -6.4785656975      -11.8901235023
 H        -5.0539685031       -7.7067165317      -12.7173085270
 H        -4.8199382404      -10.1828874357      -11.1564776225
 H        -6.3373521413       -9.4881209905      -11.3550907567
 H        -5.5839643625       -9.9722035966       -9.7076157860
 H         2.6921697972       -6.6746847478       -8.9305727481
 H         1.4052716488       -6.4103169403      -10.0596837266
 H         2.2798991546       -7.9744624314       -9.8759617586
 H         0.6672924249       -9.3472860600       -6.9066557306
 H         2.2346616638       -8.6728180510       -6.8393618830
 H         1.8186893641       -9.7187652848       -8.1773602974
 H        -0.9102922666       -2.7039114733       -4.6101659331
 H        -2.1183745448       -1.5407358057       -4.6056546905
 H        -0.9929940942       -1.3899275634       -5.8762828874
 H        -3.5705220534       -3.6785795402       -4.1889848683
 H        -2.1497840441       -4.7289918385       -4.4829486651
 H        -3.4860240198       -4.9173564829       -5.4811090989
 H        -2.4299213788       -0.5968179663      -11.5665977559
 H        -1.3478522875       -1.7040332312      -10.8342236760
 H        -0.7543805387       -0.4861745224      -12.0212032440
 H         0.8249538686        1.0908152815       -9.1342582261
 H         0.9553127714        0.7186143784      -10.8769187375
 H         0.8396164592       -0.5043987788       -9.7218709050
 H        -0.6064675995        6.5724093568       -8.5111831522
 H        -2.3881671204        7.0026607243       -8.6850128717
 H        -1.2663214292        8.2403874933       -8.8260387285
 H        -3.3390827950        7.5678343179      -11.2656591679
 H        -1.9754110936        7.8460441340      -12.3875132330
 H        -2.1692318319        8.7233787648      -10.9288076653
 H         3.3463483608        3.1752410128       -8.7189115000
 H         2.3375499071        4.2213674932       -7.6239896861
 H         3.9706840231        4.0675556677       -7.4099156052
 H         4.8119511005        7.1999145279       -8.8272825221
 H         5.4360400270        5.8273581029       -8.1525618858
 H         4.3246032930        6.5827964545       -7.1384762486
 H         5.3670702985        1.9456963616      -14.6966294383
 H         4.9816773832        1.8398163049      -16.4410008531
 H         3.9288809629        1.1812586981      -15.1435515182
 H         5.4751971128        4.1309266367      -16.4564245515
 H         5.1340952972        5.1361861840      -15.0518665814
 H         4.1803604811        5.1799351406      -16.4415551750
 H        -3.9361241495        4.8911538167      -16.0553332963
 H        -2.7025368945        4.8332192127      -14.8087207508
 H        -3.3981308864        3.3492764265      -15.2535043183
 H        -2.9854950400        2.3696395228      -17.5446295352
 H        -1.8114580591        3.1231928313      -18.7660581679
 H        -3.3591484242        3.8818796321      -18.1824869763
 H        -0.3168184707       10.0474796103      -17.4910354688
 H         1.4893034164        9.7771661947      -17.5489290623
 H         0.8032514158       10.8598854321      -16.3207324279
 H         1.1634631833        7.9218019630      -14.0608633973
 H         1.1740920583        9.6031350986      -14.0752254581
 H         2.4235938828        8.8832529972      -15.1307245865
 Na       -0.6797968426        5.8091516789      -13.8962953301
 Na       -4.6155496973       -5.4278726216       -7.9279615459
