232

 C        -1.9680789851        9.9545652539      -15.7162090654
 C        -1.0801936894        8.8261215190      -15.3904213589
 O        -1.4264908181        7.9309211455      -14.6039761507
 C         0.3279252338        8.6930843367      -15.9431761912
 C         0.4834214829        7.2197293348      -16.6115628665
 O         0.4071327343        6.2648198655      -15.8317052720
 C         0.5655988403        6.9641223141      -18.0431683914
 C        -0.1759898478        5.5533752643      -18.2885431283
 C        -1.4392552714        5.4518878020      -17.3365154911
 O        -2.2248681058        6.4025614391      -17.1851711285
 C        -1.9094611382        4.0169089464      -16.6951569729
 C        -0.6903563634        3.3282545391      -15.9554464699
 O        -0.3440188616        3.8834589580      -14.8905977429
 C         0.1519136689        2.1178610210      -16.4618624783
 C         1.5352828828        2.0994461257      -15.9012534967
 C         2.3962788435        3.3544059305      -16.1978802764
 O         2.2782420187        4.1590869185      -17.0769400753
 C         3.7501202145        3.3335219095      -15.2891474303
 C         3.3585794961        3.4772618913      -13.7964031029
 O         2.8264175440        2.4532739708      -13.3362799440
 C         3.8078029985        4.5854187385      -12.8461175639
 C         3.6666434225        4.0962542365      -11.3667161952
 C         3.9818607732        5.3235078073      -10.5054918069
 O         4.5766484010        6.2830150432      -10.8984890056
 C         3.6160302508        5.3964316216       -8.9239134669
 C         2.2767615204        6.1838492270       -9.0532612794
 O         1.1883390737        5.6086981404       -9.1160453944
 C         2.2573284293        7.6401441617       -9.4036787255
 C         1.1269192477        8.3072082925      -10.1949777596
 C         0.2619861267        7.3075621517      -10.9786833016
 O         0.6816842963        6.9371957252      -12.0804760768
 C        -1.2016221136        7.0465266088      -10.4676704273
 C        -1.5699347576        5.5761785237      -10.9078176324
 O        -1.6177159766        5.2262697726      -12.1050876096
 C        -1.7186176321        4.4186163301       -9.8884703081
 C        -0.9000736185        3.1409775211      -10.0264198599
 C        -1.6996288086        1.7861364566      -10.2315533446
 O        -2.7999971536        1.7801199634      -10.6865225720
 C        -1.0099622370        0.3418597987       -9.9356797210
 C        -1.6149420248       -0.0290779657       -8.5967019484
 O        -1.1394889296        0.5106520854       -7.6401133725
 C        -3.0066982363       -0.7206653174       -8.5061083702
 C        -3.5134328093       -0.8823866913       -7.0936024023
 C        -3.6293378433       -2.4242248675       -6.7899071942
 O        -4.4635918352       -3.1544061786       -7.2053377088
 C        -2.4430539960       -3.1781569267       -5.8545690846
 C        -1.7222728741       -4.1673592053       -6.8923597507
 O        -2.3483619890       -4.7196254445       -7.7752770245
 C        -0.1747321019       -4.2202949015       -6.7982416408
 C         0.6217805752       -5.2168819146       -7.8234221111
 C         0.3983256939       -6.6643071955       -7.3904307341
 O        -0.0849214842       -6.9605884083       -6.2947020208
 C         0.8669463022       -7.8210918420       -8.4304120184
 C        -0.3618267180       -8.1313763365       -9.2410970190
 O        -0.7899589669       -7.5144263323      -10.1749880210
 C        -1.3917689149       -9.2513356148       -8.7979669634
 C        -2.6005794351       -9.2354681957       -9.7232625973
 C        -3.6550895157       -8.1341904286       -9.6067845231
 O        -3.5164336857       -7.2512877858       -8.7576284409
 C        -4.8544321763       -8.1480953674      -10.6006428281
 C        -5.9083827581       -7.0103412548      -10.0126733035
 O        -5.5675654384       -5.8109331624      -10.0361336952
 C        -7.3179296704       -7.4852519494       -9.5768399125
 C        -8.1373645023       -6.5509923159       -8.6258304406
 C        -7.7043764345       -6.3708146569       -7.1835781204
 O        -6.6265860999       -5.8354546855       -6.8327548901
 C        -8.4453865953       -7.1614096941       -6.1666572639
 C        -7.9536632744       -8.6174724704       -6.0957459141
 O        -6.7975061623       -8.8684274457       -6.4572812344
 C        -8.8158957537       -9.6793360082       -5.3347503625
 C        -8.6031277729      -11.0719330056       -5.8318298983
 C        -9.1380586226      -11.3033935203       -7.2953261132
 O        -8.4026053662      -11.2526891786       -8.2376773869
 C       -10.6497776650      -11.7154547222       -7.5171734442
 C       -11.7603922156      -10.5660882223       -7.3410095201
 O       -11.4060328367       -9.3986990860       -7.4907960684
 C       -13.2583693031      -10.9639432269       -7.5475107780
 C       -14.1871010284      -10.2099695329       -6.6521204236
 C       -13.6380650644      -10.2487115110       -5.2626515231
 O       -12.4301315568      -10.4486959338       -5.1033849176
 C       -14.5785286767       -9.9251714802       -4.0328944982
 C       -14.6231270118       -8.3567235162       -4.1994708961
 O       -14.9690542337       -7.8357308415       -5.2483624617
 C       -14.4898387007       -7.4577519502       -2.9968040576
 C       -15.9186140120      -10.5769789918       -4.4258667972
 C       -14.0190438214      -10.3780959506       -2.5902248557
 C       -10.9197750330      -12.1943212517       -8.9575366423
 C       -10.9715909165      -12.8602417161       -6.4116186452
 C        -8.1080634889       -6.7040203321       -4.6673476811
 C        -9.9493867746       -7.1157254561       -6.3225251599
 C        -4.3345419076       -7.4661542158      -11.9052092088
 C        -5.5924841524       -9.5050812849      -10.7791449255
 C         2.0284012373       -7.3365703521       -9.3410751553
 C         1.2969451321       -9.0018479626       -7.5470625556
 C        -1.4614198338       -2.0918981867       -5.3030469956
 C        -3.0273054051       -4.1133134047       -4.8092640482
 C        -1.3851638494       -0.5630747401      -11.1281673366
 C         0.4956067507        0.3777247477       -9.8631782965
 C        -1.4562548706        7.2784600768       -8.9213283509
 C        -2.2732744181        7.9298688564      -11.3024333980
 C         3.3864583402        4.0272857701       -8.3918386918
 C         4.6165444249        6.3296867966       -8.0917324853
 C         4.6260528450        2.1320620002      -15.3540164510
 C         4.7380370603        4.5562986540      -15.7028308758
 C        -3.0254709997        4.3034508830      -15.7682691205
 C        -2.5847108798        3.1695371705      -17.9373411446
 C         0.5756081917        9.8043959921      -16.9881731773
 C         1.3599817279        8.7942174333      -14.7870466301
 H        -2.5519727358        9.7213848371      -16.5559682234
 H        -1.4151149526       10.8552594921      -15.9880969307
 H        -2.6144534105       10.3035290209      -14.9243024987
 H         1.6015931760        6.9246654767      -18.2339356663
 H         0.1268152555        7.7661600674      -18.7793990999
 H         0.3869044077        4.6194026695      -18.1904621926
 H        -0.4929533247        5.6355679972      -19.4074608462
 H         0.1156436835        1.9311986990      -17.5241842989
 H        -0.3633519020        1.2606875069      -16.0494894504
 H         2.0000476163        1.1734079745      -16.2542812599
 H         1.5780216491        1.9841506055      -14.8069083622
 H         3.2553181818        5.5368223671      -12.9019086151
 H         4.8676193640        4.9018374773      -13.0287334007
 H         4.3978924381        3.3445073612      -11.2073083635
 H         2.7328564657        3.7548226974      -10.9937375077
 H         3.1333844233        7.6462359408      -10.0838491551
 H         2.5063164319        8.3805377840       -8.5895929368
 H         1.4404609350        9.0355291184      -10.9389097931
 H         0.4231115788        8.9332214370       -9.5777557937
 H        -2.7462932262        4.0552858507       -9.9472258696
 H        -1.4539040461        4.8744918892       -8.9150572377
 H        -0.2094633547        2.9855429338       -9.0874802644
 H        -0.1760804086        3.2847589404      -10.8281526007
 H        -2.9193980038       -1.7081083952       -9.0252094239
 H        -3.7969584664       -0.1684690288       -9.1354299760
 H        -4.6121830199       -0.4959013873       -7.1697142959
 H        -3.0511096374       -0.2698996539       -6.4384405134
 H         0.1008422537       -4.5320792312       -5.7254034097
 H         0.2540520868       -3.2275235152       -6.9069414744
 H         1.6243903045       -4.8369600451       -7.8470392479
 H         0.2615556650       -5.0521959898       -8.8718913565
 H        -1.5672782588       -9.0091314165       -7.7872643282
 H        -0.9780061842      -10.2292889077       -8.7835985482
 H        -3.1767858102      -10.2669478517       -9.6635444636
 H        -2.2206547360       -9.0927981291      -10.7466458313
 H        -7.2386321750       -8.4866065862       -9.1498777192
 H        -7.8516232806       -7.6837432624      -10.4933543900
 H        -9.1891744303       -6.6399365628       -8.7284383338
 H        -7.8998484434       -5.6327598513       -9.0370840972
 H        -9.8506334109       -9.4489589853       -5.4936796595
 H        -8.6572343234       -9.6810446376       -4.2928346304
 H        -9.1104569069      -11.7425944101       -5.0996162417
 H        -7.5358861725      -11.2718788475       -5.7467835313
 H       -13.3348995652      -12.0893226921       -7.3948686327
 H       -13.5618891176      -10.8487614678       -8.6017445280
 H       -15.1875029294      -10.4233586730       -6.7085097529
 H       -14.1347808310       -9.1534599695       -6.9494261523
 H       -14.4857898412       -7.8871717789       -1.9979296558
 H       -15.1707496912       -6.6405913665       -2.9845383697
 H       -13.4881940515       -6.9615836334       -3.1289140870
 H       -16.6603137292      -10.6022635977       -3.6150650026
 H       -15.7092918406      -11.6341845836       -4.6032247823
 H       -16.4705530054      -10.1073136640       -5.2488708386
 H       -14.5575011933      -10.0597154795       -1.7554160517
 H       -13.1135240732       -9.7973268784       -2.6669699363
 H       -13.7735641062      -11.4573902691       -2.3902712801
 H        -9.9473335130      -12.5028600455       -9.3981002767
 H       -11.3316763630      -11.4502484190       -9.5988310202
 H       -11.6825355798      -12.9957319919       -8.8854637276
 H       -11.2147373318      -12.2889694631       -5.5362158622
 H       -10.0777338859      -13.4210409483       -5.9883220612
 H       -11.7247476392      -13.6321582356       -6.6929851935
 H        -7.1555150321       -7.0941889639       -4.2564648869
 H        -8.8305190934       -7.2349613510       -4.0137688493
 H        -8.1490850662       -5.6654049820       -4.4743439079
 H       -10.2454709353       -6.0255643572       -6.4753091836
 H       -10.4804327305       -7.4436097312       -5.4267804019
 H       -10.1922799651       -7.6381624236       -7.2828660839
 H        -3.2911968750       -7.6028654270      -12.0880898106
 H        -4.5265746339       -6.4220010978      -11.9353137091
 H        -4.9357890477       -7.9576520940      -12.6924737991
 H        -5.1535136386      -10.1724382343      -11.5622204253
 H        -6.5893241540       -9.3922109131      -11.0246909727
 H        -5.3999503020      -10.1508110643       -9.8848683706
 H         2.8921749018       -6.9930343530       -8.8626204275
 H         1.7133924862       -6.4975472519      -10.0066475068
 H         2.3592907668       -8.1448874780       -9.9804622590
 H         0.4575906430       -9.3804559047       -6.9184185591
 H         2.0821852743       -8.6477036023       -6.8247579768
 H         1.7122412834       -9.7802374014       -8.1479301808
 H        -0.6914367997       -2.4489884774       -4.6134069574
 H        -2.0183061864       -1.3130553826       -4.6996538839
 H        -1.0534855099       -1.4601658138       -6.0883815336
 H        -3.5313914836       -3.5132858137       -4.0621508137
 H        -2.3730894788       -4.8417243576       -4.3194835285
 H        -3.7795868256       -4.6470329469       -5.3459987479
 H        -2.4753314559       -0.6680088407      -11.1433449969
 H        -1.0633429463       -1.5969504006      -11.1490224315
 H        -1.2143729763       -0.0893813079      -12.1299025996
 H         0.8677282605        1.0344246079       -9.1083546676
 H         0.9423908661        0.6436047715      -10.8128504488
 H         0.9304242952       -0.5736109331       -9.6318638812
 H        -0.6763107929        6.7937974562       -8.3324551136
 H        -2.4151558666        6.9015722003       -8.6390303521
 H        -1.6101753530        8.3201554122       -8.6050100945
 H        -3.2833942476        7.8200217918      -10.8370020311
 H        -2.2927245052        7.6367727231      -12.3441065941
 H        -2.1288481805        8.9786196456      -11.2189059895
 H         3.2072412560        3.2401971033       -9.0461005945
 H         2.5296770808        4.1853954788       -7.7499663096
 H         4.1980403210        3.6463221705       -7.7525407570
 H         5.2764298655        6.7577231059       -8.7525022810
 H         5.2642614351        5.8144024772       -7.3773520594
 H         4.1243150161        7.0783153893       -7.5425877077
 H         5.4615193449        2.1869147071      -14.7179838127
 H         4.8880014569        1.9120382563      -16.3906186681
 H         4.0766240585        1.3690944894      -14.8939932997
 H         5.2769319443        4.1907544520      -16.5349888241
 H         5.3877113120        4.7231742364      -14.8027875996
 H         4.2926384916        5.4773862809      -15.9332284728
 H        -3.7478997978        5.0817857592      -16.0192056025
 H        -2.7370838548        4.5549817151      -14.7432753606
 H        -3.5075413404        3.2704468849      -15.6333556898
 H        -3.1267113720        2.2797770580      -17.5161764187
 H        -1.8708854716        2.9520200599      -18.6874964650
 H        -3.3271878309        3.8474905186      -18.3123037591
 H        -0.2836498627        9.9567398495      -17.6984227808
 H         1.5611864959        9.6329194685      -17.4320622933
 H         0.7634135526       10.6564271696      -16.3353164100
 H         1.1127718901        8.0384513087      -14.0945485816
 H         1.1287635937        9.6995301371      -14.1542505921
 H         2.3650737340        8.8446964303      -15.2158125193
 Na       -0.6082309889        6.0975882895      -13.9683095050
 Na       -4.7604698431       -5.4149632827       -7.8090442278
