232

 C        -2.0425841523        9.9669486649      -15.7955845824
 C        -1.1360660886        8.8518582632      -15.4059084698
 O        -1.5700474805        8.0639659904      -14.5685285063
 C         0.3521996428        8.6098690414      -16.0389600196
 C         0.5939427233        7.1316457125      -16.6294017495
 O         0.6595229909        6.1572505567      -15.8478946533
 C         0.6338020189        6.8569006867      -18.1244304490
 C        -0.2010574178        5.5867876128      -18.3343641223
 C        -1.4824576294        5.4746290667      -17.4769752774
 O        -2.1222833891        6.4579215998      -17.2333335624
 C        -1.8595406516        4.0997071971      -16.7939933647
 C        -0.6073095594        3.4414419584      -16.0622339110
 O        -0.2732505164        3.8651361695      -14.9824090837
 C         0.0342891620        2.1814990255      -16.5602631175
 C         1.5118773956        2.0528022136      -15.8682429020
 C         2.4917966416        3.2855566202      -16.0724638366
 O         2.0852302875        4.1225757504      -16.8394307068
 C         3.7960678409        3.4184302180      -15.2169776437
 C         3.3083626074        3.4529864004      -13.7773580211
 O         2.5467971280        2.5648691392      -13.3764474687
 C         3.7894369762        4.5630811271      -12.8342952602
 C         3.6772510339        4.0927478101      -11.2855252279
 C         4.0401979378        5.3138080381      -10.4046784422
 O         4.4722985876        6.2839864612      -11.0145028527
 C         3.5445164992        5.4002987577       -8.8896485689
 C         2.2025075827        6.2126383145       -9.1148352654
 O         1.1694349615        5.5987128694       -9.0716615707
 C         2.4657401982        7.6702414467       -9.5327029940
 C         1.1877867059        8.2688672629      -10.1334790544
 C         0.2173809779        7.3576162250      -10.9753023428
 O         0.6020453307        6.8991789952      -12.0203003268
 C        -1.2697305925        7.0118110548      -10.4656564521
 C        -1.5097189433        5.5368264575      -10.8792946506
 O        -1.6776507804        5.2844743412      -12.0383407396
 C        -1.8089638259        4.4220606449       -9.8180794230
 C        -0.8965109392        3.2169633410      -10.2192152023
 C        -1.5833395283        1.8145221845      -10.3079027073
 O        -2.7739039741        1.7378169664      -10.6133305950
 C        -0.9317127432        0.4681706007      -10.0094129568
 C        -1.6033500934        0.0259898407       -8.5960793418
 O        -1.0575143105        0.3474034854       -7.5644194465
 C        -2.9609560267       -0.8426296276       -8.5831367810
 C        -3.6210495260       -1.0862988396       -7.2340969857
 C        -3.5304002389       -2.5203978759       -6.6811614384
 O        -4.4753038244       -3.1953769303       -7.0843091130
 C        -2.4121689701       -3.1234485432       -5.9035018583
 C        -1.6813108815       -4.1227866426       -6.9059060045
 O        -2.4146901876       -4.6992617382       -7.6339813750
 C        -0.1304296017       -4.1512002798       -6.9659906541
 C         0.4601819327       -5.2509628274       -7.9038991527
 C         0.3508107557       -6.6756135369       -7.4270360171
 O        -0.1331202188       -6.8894317152       -6.3344278530
 C         0.8437934402       -7.8668512413       -8.3798805435
 C        -0.4944197730       -8.1000560559       -9.2683251592
 O        -0.6859684379       -7.4904465436      -10.3019562099
 C        -1.5232543609       -9.1771717884       -8.7246910696
 C        -2.6834164508       -9.3903490608       -9.6850441890
 C        -3.6737137239       -8.1334610473       -9.5504685409
 O        -3.5006363313       -7.2872503079       -8.7114273785
 C        -4.9423063135       -8.0245358313      -10.5716877322
 C        -5.9524003424       -7.0511043435      -10.0537320184
 O        -5.7005166099       -5.8282024541      -10.0498436609
 C        -7.3046021150       -7.4684000520       -9.5182768712
 C        -8.0573829318       -6.3510102375       -8.7247015405
 C        -7.6425693822       -6.4343803614       -7.2169900035
 O        -6.6928714737       -5.8256042058       -6.8662953867
 C        -8.5824662162       -7.1389946476       -6.1251182548
 C        -7.9479838485       -8.6433013042       -6.0905094694
 O        -6.8305366658       -8.9405210009       -6.3955189582
 C        -8.8282471045       -9.6489482097       -5.3653426553
 C        -8.5822027928      -11.0076676565       -5.8900982030
 C        -9.1809531776      -11.2980620128       -7.3092839561
 O        -8.5406867347      -11.0612218849       -8.3289956364
 C       -10.6598440210      -11.7962181777       -7.3798600097
 C       -11.7167745076      -10.6294040016       -7.4652153658
 O       -11.4709497682       -9.4549570668       -7.4305260914
 C       -13.1786029479      -11.1273439612       -7.6440024916
 C       -14.0930033646      -10.4129325019       -6.6725605068
 C       -13.5415808499      -10.2881950664       -5.2163413278
 O       -12.3545020319      -10.4780277952       -4.9611898567
 C       -14.4903611059       -9.8770595260       -4.1057594534
 C       -14.8105577031       -8.3384658281       -4.1995756908
 O       -15.0196005234       -7.8312569135       -5.2685619919
 C       -14.4598045035       -7.5296418482       -2.9046667862
 C       -15.8678544659      -10.6324888055       -4.1728138142
 C       -13.9113093890      -10.2933670742       -2.7285237333
 C       -10.8312012051      -12.3902429150       -8.8174040125
 C       -11.0636957974      -12.7073147015       -6.1959757591
 C        -8.0939690568       -6.6807666406       -4.6386725342
 C       -10.0817353087       -6.9118867887       -6.4152392760
 C        -4.3317323722       -7.5032731636      -11.9164340822
 C        -5.5423079591       -9.3683619487      -10.8657809145
 C         2.1147105422       -7.5512403561       -9.2614564294
 C         1.2299941957       -9.0750186407       -7.5654287604
 C        -1.4067754521       -2.1253050346       -5.2626930805
 C        -3.1181828532       -3.9308821393       -4.7183189235
 C        -1.4700263261       -0.5005241576      -11.1735870261
 C         0.6376086543        0.3490034919       -9.7659627598
 C        -1.4604022479        7.3220244475       -9.0148007099
 C        -2.1501217385        8.0257268749      -11.1858076073
 C         3.4958405473        3.8745178478       -8.3914486857
 C         4.6359104463        6.1777415136       -8.1253817601
 C         4.6053330723        2.1347873266      -15.4141925082
 C         4.6669902523        4.7113132897      -15.6621690323
 C        -3.0342117537        4.3240223943      -15.7666657067
 C        -2.4001055608        3.1036935184      -17.8983860927
 C         0.7422240595        9.6733962522      -17.2095086895
 C         1.3234190223        8.8508833486      -14.8527908491
 H        -2.5266243642        9.8363450864      -16.7453068207
 H        -1.5889518904       10.9312199842      -15.8143433159
 H        -2.7865294444       10.0665107734      -15.0326976139
 H         1.6384836312        6.5212948412      -18.3591418090
 H         0.3984124035        7.6295677069      -18.8543915635
 H         0.3602588445        4.6366435857      -18.0604367895
 H        -0.3017943384        5.5318352916      -19.4158238049
 H         0.1394886273        2.1510797963      -17.6446128535
 H        -0.5835913607        1.2727329845      -16.3703111423
 H         1.8657605879        1.1054119882      -16.2768759026
 H         1.5123333959        1.9131237758      -14.7640993563
 H         3.0964055358        5.4098912906      -12.9406680408
 H         4.7225446364        4.9583969269      -13.0782267919
 H         4.4402382304        3.3530611243      -11.1551046344
 H         2.7727562805        3.6045289517      -10.9744059246
 H         3.3556609558        7.7713366006      -10.1705778743
 H         2.6261902980        8.3568242328       -8.6905983349
 H         1.3443176951        9.1681150718      -10.7039662316
 H         0.5175736359        8.7142480644       -9.3173599810
 H        -2.8275648880        4.0828653069       -9.9300463715
 H        -1.5673277509        4.7860303038       -8.8819325094
 H        -0.0500284942        3.0905920732       -9.6041626136
 H        -0.4679932575        3.5102856787      -11.2187931116
 H        -2.6500579640       -1.7067563826       -9.0526292672
 H        -3.6831460759       -0.3739545690       -9.3175963864
 H        -4.6763690054       -0.9261030533       -7.4051521427
 H        -3.3356203844       -0.2534736737       -6.5933984534
 H         0.2562729870       -4.3940412390       -5.9907948771
 H         0.3654267605       -3.1859714698       -7.1841501981
 H         1.5281283434       -4.8851812528       -7.8971341173
 H         0.2042543125       -5.1139069117       -8.9298334519
 H        -1.6713662760       -8.7126029233       -7.6769051633
 H        -0.9592407320      -10.1246403033       -8.4643308915
 H        -3.3737269534      -10.3193707030       -9.5197891614
 H        -2.2372336331       -9.4038645052      -10.7164894618
 H        -7.3424218926       -8.3219143562       -8.9437710202
 H        -7.7730113698       -7.8516431104      -10.4838645325
 H        -9.1130522294       -6.3995996950       -8.8271233313
 H        -7.7418321002       -5.4061110273       -9.0853884254
 H        -9.8947327528       -9.3704117768       -5.3665006691
 H        -8.5155874191       -9.6681342871       -4.2808024671
 H        -9.0529421982      -11.7024692204       -5.1860219514
 H        -7.4985647187      -11.1516414784       -5.7874275727
 H       -13.2802754998      -12.2616647719       -7.5972917785
 H       -13.6189529842      -10.8912049094       -8.6210085685
 H       -15.0452766273      -10.9363175405       -6.5949583815
 H       -14.4106889988       -9.4717017916       -7.0844532797
 H       -14.3494572018       -8.1194602025       -2.0011858118
 H       -15.1774123040       -6.7134007542       -2.5689682905
 H       -13.5211656536       -7.0448225927       -3.0568485960
 H       -16.4199251492      -10.5099311796       -3.2527494309
 H       -15.7692944351      -11.7518496920       -4.3578013130
 H       -16.6190609203      -10.1789985107       -4.9395462235
 H       -14.6285464852      -10.2954059128       -1.9388163940
 H       -13.0239312362       -9.6908873666       -2.4906737576
 H       -13.5738560864      -11.3625372371       -2.7610956666
 H       -10.1733772214      -13.1795078987       -8.9180704478
 H       -10.4697366287      -11.6147244004       -9.5802189369
 H       -11.8941049296      -12.6368613540       -9.0350828156
 H       -11.3239799080      -12.1825170053       -5.3365783243
 H       -10.2616772744      -13.3481394922       -5.8827308005
 H       -11.8341042032      -13.4756576327       -6.5634611258
 H        -6.9733626507       -6.7438832091       -4.6131948981
 H        -8.3741911996       -7.3085243801       -3.7822328808
 H        -8.2677213224       -5.5739123237       -4.4649839757
 H       -10.2608393035       -5.8649075210       -6.6775579126
 H       -10.6379014911       -7.0517345298       -5.4960496925
 H       -10.3938751784       -7.5382898706       -7.3316047842
 H        -3.2394074269       -7.6528529721      -11.9605146790
 H        -4.4955372509       -6.4433372751      -12.1075757491
 H        -4.8342609673       -8.0849355765      -12.7172437536
 H        -4.8452131730       -9.8533164225      -11.6114375715
 H        -6.5828164040       -9.4022976881      -11.2513485069
 H        -5.4071162687      -10.0844226462      -10.0902299111
 H         3.0021533662       -7.2708077501       -8.6894643783
 H         1.9311493373       -6.6887382538       -9.8613323134
 H         2.3951316849       -8.3412892516       -9.9988683159
 H         0.4560514915       -9.4039453850       -6.8388888652
 H         2.1546191288       -8.8623838821       -6.9864641738
 H         1.4754272315       -9.9030984221       -8.3123706482
 H        -0.6582423472       -2.6608912384       -4.6673875638
 H        -1.8618790147       -1.3692822312       -4.5869443731
 H        -0.9392523042       -1.5030824069       -5.9912297689
 H        -3.3594496227       -3.1650041965       -3.9536243003
 H        -2.4230417716       -4.6188759234       -4.2473522975
 H        -4.0961185642       -4.4168297612       -5.0288248976
 H        -2.4543733946       -0.8943348440      -11.0305914369
 H        -0.8892640404       -1.4523628074      -11.2543778036
 H        -1.5578537681       -0.0801430018      -12.1237446032
 H         0.8551931990        0.9407787954       -8.9144190862
 H         1.2410113260        0.7753977333      -10.5662160090
 H         1.0545562068       -0.6211434174       -9.5669346144
 H        -0.6780740655        6.9824956907       -8.4538167081
 H        -2.4108515069        6.9928411045       -8.5326241000
 H        -1.6202735286        8.3925727986       -8.8810283299
 H        -3.0347193558        8.2581771847      -10.6224060485
 H        -2.4099878909        7.6790157928      -12.1977229301
 H        -1.6832024850        9.0714252429      -11.2389297540
 H         2.9425972416        3.2558426232       -9.0838488711
 H         2.9072695584        3.7523504996       -7.4728688483
 H         4.4856639453        3.3691062477       -8.3286878374
 H         5.6143438871        6.1905118643       -8.5319857442
 H         4.7905881758        5.6519324438       -7.1393471468
 H         4.3188725266        7.1362704407       -7.8500105601
 H         5.6101679705        2.1120488049      -14.9361048891
 H         4.6605936034        1.9399314000      -16.4576287472
 H         4.1081027079        1.3727123653      -14.8318956126
 H         4.6095319274        4.6879505115      -16.7925777176
 H         5.6422540326        4.5716721032      -15.2535186724
 H         4.3005946148        5.7211894308      -15.2386071092
 H        -3.5892206087        5.1932150465      -15.9579233042
 H        -2.6496800565        4.5281528277      -14.7362689438
 H        -3.6896205438        3.4129573276      -15.6235848980
 H        -2.7614299168        2.1860307952      -17.3910243687
 H        -1.5270946284        2.8723697750      -18.5318970728
 H        -3.1579937962        3.6050448691      -18.4753488861
 H         0.0564406652        9.5304414966      -18.0639709308
 H         1.8133473225        9.5761238928      -17.4139821722
 H         0.6813913445       10.6545811941      -16.7554200244
 H         1.0710646580        8.1727171159      -14.0773738611
 H         1.1316752195        9.8170330993      -14.3984067208
 H         2.3605106624        8.8187618391      -15.2800763346
 Na       -0.5143370477        6.2345757255      -13.8824204565
 Na       -4.7617919491       -5.3464975535       -7.7729841774
