232

 C        -2.0085801416        9.5198371702      -16.5987651055
 C        -0.9014488340        8.7418479262      -16.0075298563
 O        -1.2093601906        7.8927594868      -15.1874721042
 C         0.5533420964        8.9174232316      -16.4398977552
 C         0.7742187296        7.3528735286      -16.7030853636
 O         0.9624860449        6.5674468506      -15.7939506585
 C         0.9209242088        6.7465280487      -18.1417853217
 C        -0.1354062425        5.5937834539      -18.4190391177
 C        -1.3951538030        5.5583924104      -17.5679988794
 O        -2.0030605378        6.6066732521      -17.2786845466
 C        -1.9500527478        4.1729124116      -16.9715689279
 C        -0.7812773004        3.4643940604      -16.1390676364
 O        -0.4931448589        3.9846669295      -15.0474742032
 C        -0.1212253407        2.0701901937      -16.4320613158
 C         1.3315942455        1.9651615953      -16.0070597606
 C         2.2943584234        3.2421783556      -16.2298263975
 O         2.1728714149        4.0535042661      -17.1231323571
 C         3.5744535661        3.3572151452      -15.2711673972
 C         3.2121851818        3.4438320179      -13.6712762005
 O         2.3726804254        2.7203213827      -13.1974387862
 C         4.1248812719        4.1674906445      -12.8316996641
 C         3.7009633778        3.9655341817      -11.3081117167
 C         4.2300962199        5.0417403409      -10.3912526099
 O         5.0666344596        5.8525264069      -10.7030589498
 C         3.7573395552        5.2465040941       -8.7940313625
 C         2.3737937662        6.1860399005       -8.9763334708
 O         1.2929372750        5.6093897779       -9.0648651933
 C         2.3887279845        7.7100621390       -9.2432519594
 C         0.9723612072        8.2932163491       -9.4581572114
 C         0.1788159668        7.4766857998      -10.5148489377
 O         0.7021105923        7.0815101281      -11.5773842201
 C        -1.2618890947        7.0612609351      -10.3565858712
 C        -1.6320202239        5.5950444371      -10.9341807813
 O        -1.5872889302        5.4181702731      -12.1436373009
 C        -1.6766659483        4.3595489661      -10.0318159531
 C        -1.1455707288        3.1119658542      -10.8317903284
 C        -1.7119484187        1.8848147846      -10.1660538346
 O        -2.8593091106        1.8802155572       -9.8347669938
 C        -0.7319875603        0.5291087245      -10.0185737182
 C        -1.2484494692       -0.1249721616       -8.6875078897
 O        -0.6478491924       -0.0125343962       -7.6502025729
 C        -2.6033549663       -0.8716807408       -8.7221053951
 C        -3.3653275554       -0.9806361363       -7.3692538761
 C        -3.4207953270       -2.4046104601       -6.8700681034
 O        -4.5110801561       -2.9497779443       -6.9981603217
 C        -2.2709189866       -3.2168227530       -5.9448078428
 C        -1.7178419439       -4.2465458794       -7.0110953152
 O        -2.4686548233       -5.1177500990       -7.4501781982
 C        -0.2358842955       -4.1461435476       -7.3822036105
 C         0.2780481010       -5.3046234876       -8.2148604581
 C         0.0619408474       -6.6449692399       -7.4745287377
 O        -0.2068892834       -6.6192662993       -6.2915325273
 C         0.6204324551       -7.9368820851       -8.2053878771
 C        -0.5956132097       -8.4627155006       -9.1101918919
 O        -0.7699921487       -7.9617117636      -10.1832597863
 C        -1.7713891988       -9.3900846988       -8.6387942859
 C        -2.9077816375       -9.5178756914       -9.6976169801
 C        -3.9098042224       -8.2233603013       -9.4460097818
 O        -3.9079489278       -7.5167441896       -8.4442785683
 C        -4.9923545443       -7.8695042791      -10.6106776028
 C        -6.0033501634       -6.8286394986       -9.9704835294
 O        -5.8570812603       -5.6244830665      -10.0086103217
 C        -7.3606097522       -7.3935915513       -9.4148866649
 C        -8.0693630484       -6.2271121587       -8.5770154836
 C        -7.7088710336       -6.1586424856       -7.1136591801
 O        -6.5732088326       -5.7752476013       -6.7506817950
 C        -8.6177664943       -6.7929516485       -6.0924345861
 C        -8.1320186411       -8.3391830731       -6.0852752511
 O        -7.0412260080       -8.6148953284       -6.5990126268
 C        -8.9110200092       -9.4496454035       -5.3575385610
 C        -8.5742219955      -10.8981548596       -5.9432439953
 C        -9.3493954268      -11.1750172604       -7.2310728317
 O        -8.9201991239      -10.9001460135       -8.3396026503
 C       -10.5824639116      -12.0397313784       -7.1657928589
 C       -11.9139712099      -10.9831243717       -7.5339939206
 O       -11.8852734077       -9.8766745401       -8.0070764238
 C       -13.2181339782      -11.6232607601       -7.2438206243
 C       -13.9964026604      -10.6776231023       -6.3859833054
 C       -13.4062154847      -10.4586780625       -4.9909471536
 O       -12.2132466189      -10.3948272162       -4.8366227591
 C       -14.3980875253       -9.9843761266       -3.7502868402
 C       -14.9079505725       -8.5016468993       -4.0821648155
 O       -15.3181178068       -8.1367163633       -5.2042242854
 C       -14.5712427218       -7.4538478334       -2.9894020828
 C       -15.6141521894      -10.9787954288       -3.7395742085
 C       -13.4238937192      -10.1986279743       -2.5704704924
 C       -10.6641993290      -12.9248236957       -8.4478745522
 C       -10.7186419067      -12.9536193145       -5.9203556515
 C        -8.3000194383       -6.2510714271       -4.6611961003
 C       -10.2206992339       -6.6833766770       -6.4160662243
 C        -4.1141050379       -7.1761642899      -11.7325511556
 C        -5.6764299503       -9.1368025994      -11.1357563992
 C         1.7879638324       -7.6293585886       -9.1281947789
 C         0.8895082917       -9.0353097361       -7.1276181045
 C        -1.2122788312       -2.1850062758       -5.4271970274
 C        -2.8831594284       -3.9106698709       -4.7722987821
 C        -0.9494538533       -0.2435898727      -11.3121842285
 C         0.7946721522        0.7912817688       -9.8943904277
 C        -1.7936162011        7.1328246164       -8.9486944100
 C        -2.0776465410        8.0950796217      -11.2242108238
 C         3.3326347386        3.9261735924       -8.1497334687
 C         4.8154688585        6.0393666666       -7.9387795163
 C         4.3373670905        2.0417549041      -15.3595265252
 C         4.4085049000        4.5756336804      -15.8396249372
 C        -3.0682596078        4.4463383771      -15.9733123665
 C        -2.4681880671        3.3570260800      -18.2513408166
 C         0.9037189038        9.8844576887      -17.6593712220
 C         1.4376744590        9.4319673934      -15.2559158872
 H        -2.3718410893        9.0507524284      -17.5085609206
 H        -1.7880347322       10.5050593978      -16.9101590683
 H        -2.8474447346        9.4894314693      -15.9356609081
 H         1.9094535443        6.2742855142      -18.2227229696
 H         0.9411573643        7.4389513765      -18.9519332884
 H         0.3706897760        4.6415829953      -18.3138976074
 H        -0.4824859441        5.4425704329      -19.4519725639
 H        -0.2177145709        1.7528057395      -17.4945600642
 H        -0.7871567540        1.3613790973      -15.9128643337
 H         1.8709800819        1.1109076039      -16.4751198844
 H         1.2375810311        1.9218316322      -14.9203995401
 H         4.1078502893        5.1424903307      -13.2406065473
 H         5.0775914411        3.7217898255      -12.9857400378
 H         4.0128825775        2.9641250418      -11.0792048149
 H         2.6502676674        3.8385622854      -11.2319199830
 H         3.0700359301        7.9127179680      -10.0920883434
 H         2.8993984065        8.2496316656       -8.4598743280
 H         0.8549435310        9.3525628756       -9.8544552367
 H         0.4954507249        8.3839875872       -8.5353235960
 H        -2.6477183270        4.2053765979       -9.6684158510
 H        -1.0232352834        4.4643951785       -9.1573368312
 H        -0.0667802994        3.0884792115      -10.9286265002
 H        -1.5478013618        3.0414474087      -11.8644448215
 H        -2.7120066972       -1.7818202537       -9.2809941601
 H        -3.0217718797       -0.1856101405       -9.3193416923
 H        -4.3388565105       -0.5591823109       -7.4882772695
 H        -2.9235792149       -0.4253245253       -6.5068520412
 H         0.3138558347       -3.9690949555       -6.5013790026
 H        -0.1818518981       -3.1270459292       -7.7780457762
 H         1.2885838965       -5.1853016846       -8.6320528665
 H        -0.3053617331       -5.2371367841       -9.1226641330
 H        -2.2404269707       -8.9107012942       -7.6897340876
 H        -1.2935783845      -10.3648763911       -8.1880864448
 H        -3.4925676288      -10.4098037281       -9.6222747991
 H        -2.7165297504       -9.3882132612      -10.8459065752
 H        -7.2283650751       -8.3564501419       -8.8961773998
 H        -8.1289750600       -7.6976436445      -10.0977809661
 H        -9.1106181530       -6.3642851288       -8.7556503843
 H        -7.8393154157       -5.3277787677       -9.0901178180
 H       -10.0054922141       -9.3050079115       -5.2044261092
 H        -8.5433088684       -9.5197996391       -4.2952443438
 H        -8.7796038340      -11.5979621125       -5.1411456908
 H        -7.5093591073      -11.0640160808       -6.2045577614
 H       -13.1662615666      -12.6073960466       -6.8038186235
 H       -13.7173384752      -11.6628326207       -8.2769029844
 H       -15.0375783955      -11.0768789915       -6.2977570949
 H       -14.0498090091       -9.7003617620       -6.8067500033
 H       -15.4989147602       -7.4681851156       -2.3676303763
 H       -14.4028411105       -6.4542365980       -3.3292537435
 H       -13.8065517840       -7.6855045410       -2.2189448904
 H       -16.0822439640      -10.8115507322       -2.6985518909
 H       -15.3694744302      -12.0579632129       -3.8387068167
 H       -16.3882829586      -10.7626180489       -4.4557042245
 H       -13.9721665152       -9.9795802243       -1.6017257224
 H       -12.4664086391       -9.6755566842       -2.5703268830
 H       -13.1621289023      -11.2079332776       -2.5888658490
 H       -11.5963532649      -12.7953553853       -9.0917214582
 H       -10.4083760617      -13.9448722604       -8.1785818313
 H        -9.9488548317      -12.4936318998       -9.0961043839
 H       -11.2272424836      -12.3697391153       -5.0748878033
 H        -9.7946141562      -13.3914587908       -5.5772254116
 H       -11.4118973450      -13.7386760192       -6.0127139872
 H        -7.2729785050       -6.3722125268       -4.3110521426
 H        -9.0199002076       -6.6975818536       -3.9098499577
 H        -8.4223868117       -5.1402218754       -4.5747690236
 H       -10.6813815153       -5.7942132533       -6.9232576436
 H       -10.7191002041       -6.8736565024       -5.3984946197
 H       -10.4885135931       -7.5204173538       -7.0138438175
 H        -3.6423952593       -7.8928057669      -12.4261087515
 H        -3.3625198875       -6.4377916231      -11.3405097027
 H        -4.7338176288       -6.5656136695      -12.3302458604
 H        -5.0677471241       -9.6469492736      -11.8519422167
 H        -6.6953825725       -8.9633941398      -11.5507805819
 H        -5.9977013865       -9.8299167515      -10.3032663032
 H         2.5792657151       -7.0629001181       -8.6556963098
 H         1.5839481110       -7.1738822689      -10.0881085406
 H         2.2155723094       -8.5432600117       -9.4304716677
 H        -0.1288104139       -9.3695401181       -6.8476454801
 H         1.4890925226       -8.7125885011       -6.2535408151
 H         1.3711537230       -9.9196610836       -7.5900642870
 H        -0.3154208744       -2.5974133209       -4.9187115595
 H        -1.7259484297       -1.6648676201       -4.6466829626
 H        -0.8077826708       -1.4125420158       -6.1531264388
 H        -3.2895940445       -3.2205894206       -4.0625860801
 H        -2.1151240211       -4.4392883984       -4.1993456555
 H        -3.7426524337       -4.4661384236       -5.0432013140
 H        -1.9399530088       -0.2499511791      -11.7889794669
 H        -0.7756218730       -1.2889685811      -11.1443146340
 H        -0.2342616153       -0.0271716906      -12.1244249918
 H         1.0723772427        1.5865158939       -9.2136570195
 H         1.1526176805        1.1878851610      -10.7982762542
 H         1.3376316509       -0.1079070895       -9.6714760083
 H        -1.0372999390        6.7828036530       -8.1604631217
 H        -2.6587716936        6.6009248795       -8.6669913702
 H        -1.8864698238        8.1447257485       -8.6972372481
 H        -3.0463100768        7.6812858847      -11.5907207339
 H        -1.5287905137        8.4042440078      -12.1327672922
 H        -2.2500353935        9.0324960504      -10.6882940292
 H         2.2838506638        3.6589068408       -7.8493767757
 H         3.7064025720        4.0621070492       -7.1564465454
 H         3.8977565345        3.1282036142       -8.5306429624
 H         4.2384041199        6.7104766814       -7.3219217955
 H         5.4945674145        6.5890197450       -8.5352250383
 H         5.3620408830        5.3437839666       -7.2511811830
 H         5.2527520857        2.0895967097      -14.7924279544
 H         4.6710297620        1.7652530997      -16.3502769666
 H         3.7090027604        1.2117300672      -15.0092870609
 H         3.7923247785        5.4977296311      -15.7608866195
 H         4.5965155900        4.2672891682      -16.9561391512
 H         5.3392381461        4.6499333377      -15.3102211185
 H        -4.0554924067        4.8610064745      -16.4163672383
 H        -2.7462794975        5.2706954147      -15.3140265750
 H        -3.3666000373        3.6570604268      -15.3419089221
 H        -2.9622481532        2.5872290916      -17.7142845537
 H        -1.7182758426        2.7859650893      -18.8221756559
 H        -3.1398893843        3.9178438141      -18.9325464770
 H         0.4202849778        9.6895216449      -18.6171917970
 H         2.0180557014        9.9736340100      -17.7692453102
 H         0.4815939967       10.8455332792      -17.2446769263
 H         1.4859850743        8.6137273158      -14.4515124916
 H         0.9893989404       10.3899266232      -14.9968749641
 H         2.4257025570        9.6413158240      -15.5897353545
 Na       -0.3014310532        6.2592116140      -13.9333103600
 Na       -4.8905111012       -5.0324234355       -7.9947895757
