232

 C        -2.0205703891        9.5216931888      -16.8221872690
 C        -0.9541272457        8.7248765980      -16.1260428639
 O        -1.1772237028        7.9990534568      -15.1281895589
 C         0.6387204298        8.8943543308      -16.5369893240
 C         0.9997037483        7.3388366054      -16.8127666088
 O         1.0323097572        6.6962921737      -15.7598149898
 C         0.8168842033        6.7538706896      -18.1783377391
 C        -0.1421733938        5.5266603142      -18.4817848124
 C        -1.3782740697        5.5640340706      -17.5685516658
 O        -1.9664358250        6.5821847030      -17.3013773308
 C        -1.8779357153        4.2404382061      -16.9036531290
 C        -0.8432998863        3.5924577648      -16.0364337186
 O        -0.5367909649        4.1095917008      -14.9326724277
 C        -0.1080206295        2.3466067886      -16.5064597599
 C         1.2504469548        2.0609346304      -15.9396635685
 C         2.2719188993        3.0990780941      -16.2362860599
 O         2.2374531742        3.8036512490      -17.2227904585
 C         3.5556601272        3.1795520893      -15.2747455163
 C         3.1997874662        3.3750630523      -13.6827599098
 O         2.2551452291        2.7489312838      -13.2211849127
 C         4.1942031657        4.1919163734      -12.6930830567
 C         3.7079530963        4.0693441095      -11.2379648483
 C         4.3169740390        5.1179168664      -10.2472558973
 O         5.2484775142        5.7497216385      -10.6381381340
 C         3.6795753249        5.3594891442       -8.7180977194
 C         2.3868325846        6.0929786807       -8.9750450479
 O         1.3261170911        5.4231903601       -9.0532351384
 C         2.3060262211        7.5772252228       -9.1977733278
 C         0.9601803917        8.1554693476       -9.4636052074
 C         0.1891346465        7.3863906784      -10.5478205816
 O         0.7036312698        7.2411840706      -11.6593279999
 C        -1.3811429824        7.0620656284      -10.3216039796
 C        -1.4157917483        5.6335338477      -10.9892804261
 O        -1.4531133919        5.5564671388      -12.2347181659
 C        -1.6360610231        4.3894901572      -10.1774933222
 C        -1.2688751645        3.1489778731      -10.9455129922
 C        -1.6233141091        1.8593010437      -10.1397852960
 O        -2.7235129214        1.7856011447       -9.6568745554
 C        -0.6472616565        0.5909440728      -10.0000058907
 C        -1.1839165663       -0.0824442438       -8.6721752500
 O        -0.5831496467       -0.0905557342       -7.6354404477
 C        -2.5935299684       -0.8281216487       -8.7439737942
 C        -3.1406026529       -0.8820111227       -7.3511698305
 C        -3.4376712482       -2.4450585181       -6.7919069641
 O        -4.4535360025       -2.9687177122       -7.1113112961
 C        -2.3658768734       -3.1490472739       -5.9577961795
 C        -1.7449696481       -4.2492621720       -6.9938507731
 O        -2.4613347063       -4.9377865628       -7.6138452815
 C        -0.2308140827       -4.1976349944       -7.5520124305
 C         0.2748833184       -5.4380519583       -8.3243443430
 C         0.2112815770       -6.6757464771       -7.4257411594
 O        -0.2447433714       -6.5876911517       -6.2905194936
 C         0.4709167025       -8.0500508702       -8.1481568617
 C        -0.7319051490       -8.4031681041       -9.0784786417
 O        -0.7345164717       -7.9797862756      -10.1994441599
 C        -1.7588917373       -9.4414331078       -8.5838831229
 C        -3.0119244357       -9.3983587043       -9.5214709851
 C        -3.9542826927       -8.2525657760       -9.4812578027
 O        -3.9917679127       -7.5869534767       -8.4530992696
 C        -5.0052635476       -7.8564903494      -10.6155044873
 C        -5.9909024356       -6.7821503859       -9.9721910686
 O        -5.7373472516       -5.5958594551      -10.0528624960
 C        -7.3284253457       -7.2455880940       -9.4306748770
 C        -8.1171612631       -6.0858378055       -8.6824950590
 C        -7.7901833476       -6.1533956189       -7.1173579276
 O        -6.7226686736       -5.6613294875       -6.7138455409
 C        -8.6206771988       -6.9245850790       -6.0989992377
 C        -8.1668287993       -8.3796691036       -6.0225934018
 O        -7.0736234449       -8.5518671448       -6.5473322748
 C        -8.9442580933       -9.4418925027       -5.3084836005
 C        -8.5017971531      -10.8574878009       -5.9020117536
 C        -9.2223863634      -11.1968840328       -7.2275372409
 O        -8.6659380104      -10.8913912520       -8.2346891852
 C       -10.6564412147      -11.9969796259       -7.2995868358
 C       -11.9744629079      -11.1271797786       -7.3965402849
 O       -11.9421649534      -10.0868893164       -8.0311559955
 C       -13.3124635405      -11.7751957328       -6.8819957072
 C       -14.1612127774      -10.6589839042       -6.3149871299
 C       -13.4105302276      -10.3412808844       -5.0441050043
 O       -12.2148954577      -10.4642203579       -4.7919165125
 C       -14.3526957718      -10.0073810869       -3.7329227541
 C       -14.7652958459       -8.5604669368       -4.0268110632
 O       -15.2853197477       -8.3680369387       -5.1152572046
 C       -14.6161101269       -7.4216483320       -3.0589502542
 C       -15.4623866953      -11.0276418629       -3.7509547994
 C       -13.4983318719      -10.1964585515       -2.5035682195
 C       -10.7560932382      -12.9808847917       -8.5546110547
 C       -10.8750262278      -12.7782006854       -5.9968400418
 C        -8.3002448446       -6.2927228518       -4.6982040440
 C       -10.1390097695       -6.5766815862       -6.4342339345
 C        -4.1762740581       -7.0315094969      -11.6276350199
 C        -5.6986380014       -9.0907792021      -11.1720685288
 C         1.6176363149       -7.7636688803       -9.1016532456
 C         0.8938203578       -9.0187086102       -7.0140491198
 C        -1.1930643614       -2.2297855961       -5.4316950308
 C        -3.0645095006       -3.8671755352       -4.8097097094
 C        -1.0124121034       -0.2448986408      -11.2619016922
 C         0.8289417474        0.8999984444       -9.9912024918
 C        -1.8735343459        7.1752090785       -8.8555835076
 C        -2.1099206679        8.0090223330      -11.2719978630
 C         3.2993239608        3.9196658401       -8.0998184303
 C         4.7792069088        6.0929590975       -8.0227321360
 C         4.4281916362        1.9620666608      -15.4799071979
 C         4.4138176124        4.4489810821      -15.8189236134
 C        -3.0559008885        4.5003861263      -16.0592994071
 C        -2.4359062086        3.4715915653      -18.3003293127
 C         0.7639160167        9.8748991146      -17.7022218596
 C         1.4426003448        9.3883919560      -15.2867107602
 H        -2.4236736195        8.9117596120      -17.5845800212
 H        -1.6776900382       10.4091034619      -17.3804790885
 H        -2.8783114781        9.7116568755      -16.1832942785
 H         1.7454830146        6.6116649364      -18.6877352234
 H         0.3437329390        7.5669673179      -18.8814601695
 H         0.3195489367        4.6109323789      -18.5182636120
 H        -0.4233947324        5.6081230686      -19.5353573819
 H         0.0260149115        2.2444166175      -17.6242801897
 H        -0.8340103961        1.5297205230      -16.2705423545
 H         1.6110270706        1.2086151435      -16.5571074886
 H         1.1894169435        1.8965236678      -14.8621076282
 H         4.1069607102        5.1714138396      -13.0452088702
 H         5.2332837542        3.8301195343      -12.7219699412
 H         3.7362468526        2.9837561778      -11.0106671403
 H         2.6020027153        4.2335208902      -11.2586583513
 H         2.9187946633        7.7562079902      -10.0545888676
 H         2.8697984498        8.1346572382       -8.4628895838
 H         0.8788810349        9.1273138833       -9.9518419863
 H         0.4138055460        8.3096473867       -8.5207116047
 H        -2.6882842001        4.4021028687      -10.0360864674
 H        -1.2125117305        4.3821795342       -9.1536911351
 H        -0.1790279772        3.0897020853      -11.2421585097
 H        -1.8279841860        3.1665901314      -11.8016889123
 H        -2.5243142878       -1.7960605477       -9.1805896573
 H        -3.1454752924       -0.2586633240       -9.4967060803
 H        -4.1861515163       -0.2791540169       -7.3246650744
 H        -2.5214485779       -0.3626100040       -6.6617030878
 H         0.5507171486       -3.9575447049       -6.8308196527
 H        -0.2624869189       -3.2849720551       -8.0659126019
 H         1.2411610707       -5.2012070814       -8.6788377889
 H        -0.2508597781       -5.6018548696       -9.3100655526
 H        -1.8523453289       -9.5082717850       -7.4539828495
 H        -1.1984759090      -10.4205362868       -8.8159317557
 H        -3.6613063189      -10.2509011696       -9.3955036232
 H        -2.7392340557       -9.4801521782      -10.5142980783
 H        -7.2317942527       -8.1544398544       -8.7094476284
 H        -8.0137003595       -7.6945728490      -10.1052190841
 H        -9.1891598271       -6.2937118534       -8.9841234931
 H        -7.8982217536       -5.0465314907       -9.1008360158
 H       -10.0712523116       -9.2417376873       -5.2127047315
 H        -8.6291101135       -9.5491503457       -4.2168931026
 H        -8.6748935791      -11.6004231536       -5.1110361829
 H        -7.4336072545      -10.8684225373       -6.1214909406
 H       -13.1194265193      -12.4971114903       -6.1274100986
 H       -13.6984447198      -12.2236208433       -7.7896714279
 H       -15.1865919330      -10.8912820577       -5.9642876683
 H       -14.1983840582       -9.7782237873       -7.0359937826
 H       -15.5224527809       -7.3979549867       -2.4595135138
 H       -14.4736932586       -6.4846018913       -3.5416566681
 H       -13.8048215115       -7.4987273248       -2.2749622976
 H       -15.8621342941      -11.0123182006       -2.6913731049
 H       -14.9833445279      -12.0308365164       -3.8646776409
 H       -16.3450120212      -11.0120891040       -4.4384206184
 H       -14.0774886185      -10.0201329164       -1.6205255027
 H       -12.7940541169       -9.3436505389       -2.5401402760
 H       -12.8026631349      -11.0852830422       -2.4298688103
 H       -11.6246403167      -12.6763128135       -9.2012525038
 H       -10.8102866569      -13.9469792011       -8.1448668840
 H        -9.8970355148      -12.8752383075       -9.2326272341
 H       -11.1174753770      -12.1564698304       -5.2033561021
 H        -9.8872978998      -13.2271725295       -5.7717620412
 H       -11.6435932183      -13.5206052569       -5.8674791508
 H        -7.1853286861       -6.2110305917       -4.4725939890
 H        -8.8271624641       -6.8256852154       -3.8285016715
 H        -8.6285363408       -5.2356061873       -4.6006705378
 H       -10.3160520242       -5.5587239041       -6.8109172791
 H       -10.6490522686       -6.6643955321       -5.5116121617
 H       -10.6357466756       -7.2829712969       -7.1305254849
 H        -3.5361158872       -7.8033034569      -12.0914129101
 H        -3.5838450229       -6.2222916798      -11.1870146738
 H        -4.7030547224       -6.5350261557      -12.4988105239
 H        -5.2525477854       -9.6672619781      -12.0120515714
 H        -6.6458646023       -8.8239974397      -11.4534164671
 H        -6.0224761500       -9.7438608676      -10.3144384222
 H         2.4640210046       -7.2772450422       -8.6334818706
 H         1.3433477572       -7.1314748669      -10.0013549801
 H         2.0440418343       -8.6552054392       -9.5803073320
 H        -0.0045542216       -9.3746458742       -6.4335278602
 H         1.6291685588       -8.4752165033       -6.3373817318
 H         1.3743068912       -9.8864116762       -7.4321389502
 H        -0.3376080916       -2.7505305810       -5.0414959250
 H        -1.6502849280       -1.7746931194       -4.5458791631
 H        -0.8007727826       -1.4523328777       -6.0592435450
 H        -3.2993763653       -3.2709926162       -3.9001255810
 H        -2.4758917356       -4.7429913337       -4.4282125738
 H        -4.0516224413       -4.1396020560       -5.1894693531
 H        -2.0429331601       -0.5097991974      -11.2135300479
 H        -0.5100101184       -1.1600381811      -11.3809706091
 H        -0.8731922243        0.2458846593      -12.2357854094
 H         1.1426176707        1.5296165681       -9.1825795325
 H         1.1356994085        1.4716501306      -10.8509947889
 H         1.3685556815       -0.0292345864       -9.9906193819
 H        -1.2817449709        6.4964158597       -8.2407531389
 H        -2.8458551614        6.8872576201       -8.5840157218
 H        -1.5936007480        8.1470890954       -8.4193503467
 H        -3.1721675078        7.7160409909      -11.5992597165
 H        -1.5256424756        8.0494982115      -12.2199611603
 H        -2.0643896428        9.0369914197      -10.9357153156
 H         2.2826037214        3.5897810015       -8.2326142898
 H         3.1981240577        4.2033496196       -7.0254650384
 H         4.0762010734        3.1084942525       -8.1632339684
 H         4.6148954283        7.1779608911       -8.0170330156
 H         5.8480296601        5.8752331918       -8.5436671761
 H         4.7862174348        5.7372612066       -6.9794284943
 H         5.4409202607        2.0812689580      -15.1296366420
 H         4.5449937001        1.6908830877      -16.5826052576
 H         3.9319847739        1.0603551229      -15.0928813929
 H         4.1429770259        5.3737344462      -15.2704110621
 H         4.2330196919        4.5292866841      -16.9419303430
 H         5.4684184477        4.1938015406      -15.5978255853
 H        -3.7526280379        5.0553990551      -16.6339769713
 H        -2.8503125869        5.0575221013      -15.2031796757
 H        -3.6383482621        3.6160010514      -15.7273637899
 H        -2.9801579713        2.5865931491      -17.8591040433
 H        -1.6850442870        3.0445885747      -18.9522484070
 H        -3.1504318451        4.1286841650      -18.8673230955
 H         0.1888606221        9.6116857745      -18.6257175330
 H         1.7982586732       10.0498186901      -17.9699364687
 H         0.2776081489       10.7560263981      -17.3051982012
 H         1.4474093367        8.5580913323      -14.6318093434
 H         0.8515402869       10.2755480310      -14.9539940706
 H         2.4588019365        9.6912738885      -15.4610874446
 Na       -0.2463649423        6.2629996819      -13.8443747093
 Na       -4.9109041877       -5.1473104228       -7.9458265699
