232

 C       -21.0245089566       -7.1976948834       -1.6913249879
 C       -20.6174709445       -5.9155201497       -2.4661003232
 O       -20.0239482718       -4.9844081579       -1.9324216184
 C       -21.0183126998       -5.8515471176       -3.9857457582
 C       -20.0833366508       -5.0705312246       -4.9030071110
 O       -20.1517102115       -3.8558072015       -5.0697700668
 C       -19.0425452237       -5.9612001909       -5.6721035291
 C       -17.9055443990       -5.1972944066       -6.2078811992
 C       -17.3252790159       -4.3223847729       -5.1421000757
 O       -17.4343784137       -4.6758942516       -3.9536091178
 C       -16.6396676666       -2.9981857652       -5.5089233198
 C       -16.5112460855       -2.3083545811       -4.0067524423
 O       -17.4352469367       -1.7311966653       -3.5123950728
 C       -15.1985754764       -2.3279782939       -3.2394886860
 C       -15.3525850656       -1.8651309080       -1.7602399050
 C       -15.9154159563       -2.9021480585       -0.7951414145
 O       -17.0386059374       -3.3257531404       -0.8661526651
 C       -15.0092709876       -3.3497462014        0.3833924900
 C       -14.0180696563       -4.3849703965       -0.3210620966
 O       -12.8373114915       -4.3479507823        0.0192328278
 C       -14.5874478263       -5.4787231566       -1.3457358502
 C       -13.4825842117       -6.4306305676       -1.7238422474
 C       -13.1803918095       -6.3707416366       -3.2094063254
 O       -13.9418951973       -5.8704176062       -4.0067763379
 C       -11.9308195296       -7.1917992501       -3.6265506537
 C       -10.5242470106       -6.8000768516       -2.9039926533
 O       -10.4442625307       -6.6188683091       -1.7170852201
 C        -9.2086879632       -7.0371446674       -3.7625953595
 C        -7.9711092446       -6.2082460185       -3.2924558353
 C        -7.8340528619       -4.8015027480       -4.0016940510
 O        -8.6417700042       -4.4886562694       -4.8413544156
 C        -6.5880077053       -3.9019563549       -3.5599568944
 C        -5.4621007369       -5.0794571518       -3.3536586742
 O        -5.2804216550       -5.6224932966       -2.2980548796
 C        -4.5677707135       -5.5409504987       -4.5289390381
 C        -3.1474532060       -5.9652970423       -4.1298415126
 C        -2.1359122971       -4.8549069749       -4.4313479264
 O        -2.6040396574       -3.7777103979       -4.7916610993
 C        -0.4840246393       -5.0853062296       -4.2811758380
 C        -0.0864987167       -5.3632659127       -5.8282850668
 O        -0.0228391154       -6.5300698741       -6.1780793708
 C         0.0492889614       -4.1965995931       -6.8031286717
 C         0.3178109050       -4.7112322503       -8.2316341480
 C         0.7427593012       -3.6066462150       -9.2116370614
 O         1.1302096801       -2.4792317197       -8.8839189909
 C         0.7730823390       -3.8820960716      -10.7069343637
 C         1.4869114626       -2.7253636754      -11.4502162723
 O         0.8447740178       -2.1030968893      -12.2971837383
 C         2.9725672560       -2.3875189998      -11.2624649880
 C         3.5010694676       -2.4305238974      -12.7066205528
 C         4.7630657485       -1.5334073598      -12.9109847619
 O         5.4018767052       -1.0790185702      -11.9962721157
 C         5.2938489563       -1.3091397142      -14.3792702783
 C         5.6731266922        0.2286085071      -14.7418340105
 O         5.7799354551        0.4448928083      -15.9385071059
 C         6.2164124104        1.1789807372      -13.6892818962
 C         7.7121026755        1.6963202271      -13.9769568512
 C         8.0795390957        2.4908685460      -15.2083221440
 O         8.3564718248        1.9041746854      -16.2826437203
 C         8.2872901080        4.0350435175      -15.0144829313
 C         6.8873979675        4.6338656544      -14.8283211078
 O         6.0607588988        4.1479412407      -14.0785050538
 C         6.5954703060        6.0290820935      -15.4900670670
 C         5.4178451685        6.0022784458      -16.5088139015
 C         5.0795386912        4.7349327143      -17.1980804446
 O         5.5485930021        3.6288847240      -16.8242916853
 C         4.1913589165        4.8548468941      -18.4518493830
 C         5.1439542464        5.7827807656      -19.4649464927
 O         5.2060678725        6.9724958298      -19.2220241946
 C         6.0903133971        5.1132083608      -20.4518659131
 C         7.0890118149        6.1790876891      -20.9467379016
 C         7.7773006081        5.6052159998      -22.2650062413
 O         7.0733896914        5.4446112172      -23.2237390444
 C         9.3699484692        5.1549644526      -22.2584220808
 C         9.3914641405        3.6497630144      -21.8308423761
 O         8.6285713450        2.9760589575      -22.5140492417
 C        10.2148310605        3.0674388807      -20.6794317494
 C        10.1309018046        1.5185177604      -20.6271098480
 C         8.7730836766        1.2305734424      -20.1207222290
 O         8.3873637211        1.7860619063      -19.1456085192
 C         7.8954344491        0.0416261939      -20.9046147113
 C         6.4319627821        0.5745894416      -20.9766540330
 O         5.7631427043        0.7728506804      -19.9613391863
 C         5.7890469193        0.9195802295      -22.2903118954
 C         8.4732113153       -0.4598193764      -22.1901280657
 C         7.8433661618       -1.2137039128      -20.0192782581
 C         9.7621971098        5.2279918777      -23.7674523752
 C        10.2252081336        6.0717422362      -21.2933371197
 C         3.8282198344        3.4683049826      -18.9587744276
 C         2.9435836670        5.6368900946      -18.1338776808
 C         9.0342411066        4.4072893439      -13.6733419015
 C         9.0679338301        4.5611345498      -16.2947551372
 C         6.7306524381       -2.0323468578      -14.3273246888
 C         4.2435884230       -1.8858097146      -15.4227469727
 C         1.4852961764       -5.3155825951      -10.9220635969
 C        -0.6074509314       -4.0522691026      -11.3183473272
 C         0.0301169222       -3.7446896181       -3.6889943972
 C        -0.2376742387       -6.3906469576       -3.5186513058
 C        -6.2344215909       -2.9684536505       -4.7405927567
 C        -6.7650973902       -3.2814378830       -2.1619111338
 C       -12.2232838644       -8.6836594443       -3.1406547062
 C       -11.9572356333       -7.1582758184       -5.2076738220
 C       -14.2643383139       -2.2224872829        0.9956179452
 C       -15.8861239005       -4.0511565110        1.4838250524
 C       -15.2771276459       -3.1990482641       -6.1369847159
 C       -17.5258156045       -2.1368900203       -6.3485322332
 C       -21.3962903856       -7.1872172557       -4.5449135641
 C       -22.3031059645       -5.0010864760       -3.9705025455
 H       -21.9649492528       -6.9583607398       -1.2144100332
 H       -20.2046436902       -7.5612737653       -0.9831118518
 H       -21.1231004173       -7.9897765410       -2.3881497177
 H       -19.6128776179       -6.5035301842       -6.4101116225
 H       -18.7309937611       -6.7670565683       -5.0153459486
 H       -18.2100134440       -4.6207587245       -7.0302185430
 H       -17.2053858163       -5.9476896782       -6.5637938948
 H       -14.4946522949       -1.5981586753       -3.7278603964
 H       -14.7676906461       -3.3320721925       -3.2695154145
 H       -16.0026733043       -1.0282807491       -1.6945385795
 H       -14.3563439780       -1.5113066086       -1.3646505151
 H       -14.8871922376       -4.9919396678       -2.2659413331
 H       -15.4477339596       -6.0456950197       -0.9692965987
 H       -13.7315161301       -7.4880746458       -1.4883035409
 H       -12.5550098902       -6.3059900626       -1.1736174724
 H        -9.3817020896       -6.9097701687       -4.8103286766
 H        -9.1354487226       -8.1525655752       -3.5909474627
 H        -7.0476987982       -6.6019306028       -3.6774638355
 H        -7.9361830223       -6.1646298125       -2.1831698817
 H        -4.4544142911       -4.8066913700       -5.3094293872
 H        -4.9347262269       -6.4197006267       -5.0071311820
 H        -2.7092809907       -6.8943126952       -4.6690466374
 H        -3.0331929719       -6.2806007280       -3.0562593539
 H         0.9702922547       -3.6758697086       -6.6158076217
 H        -0.6456701905       -3.3151986075       -6.6951715349
 H        -0.5154314829       -5.2498857254       -8.6620329022
 H         1.1192041376       -5.4072270737       -8.1276059768
 H         3.5281525142       -3.0418442841      -10.5467136430
 H         3.0807285949       -1.4375284453      -10.7071854659
 H         2.8260705918       -2.0223881831      -13.3968419237
 H         3.8752321397       -3.4616337920      -12.9831033291
 H         6.3347175109        0.9705105136      -12.5892765655
 H         5.6148374954        2.1588871760      -13.6026016927
 H         8.3700652413        0.7948931003      -13.9252916504
 H         7.9607150816        2.1864615311      -13.0265337101
 H         7.5646436066        6.5031771151      -15.9345779241
 H         6.2444214381        6.9040403748      -14.8386764766
 H         5.6759799590        6.7055489107      -17.3493751262
 H         4.5551236180        6.4262286752      -15.9120610090
 H         5.3963808031        4.7614226204      -21.2372370623
 H         6.6281186215        4.1974573231      -20.1379709054
 H         7.8961141384        6.2656280847      -20.1574398110
 H         6.5145819693        7.0699490974      -21.1954750696
 H         9.8356820883        3.4748466796      -19.7617494124
 H        11.1821744439        3.4811431165      -20.9186465652
 H        10.9075723940        1.3170248558      -19.8841511499
 H        10.2216070126        1.1006707888      -21.5525295854
 H         5.6651758732       -0.1053017914      -22.7880165205
 H         6.3798729424        1.4334888554      -22.9726175089
 H         4.7396901339        1.2103265906      -22.1289729193
 H         7.7859009209       -1.2221846833      -22.6957548585
 H         9.4064489291       -0.9449555109      -21.9998579217
 H         8.5375017484        0.2204154459      -23.0757971847
 H         7.2239120463       -1.9643636129      -20.4683672845
 H         7.3650759911       -0.8472313007      -19.1610055901
 H         8.8337700248       -1.5759196046      -19.8171155989
 H         9.5795907376        4.2745100406      -24.2887786832
 H        10.7959458584        5.4470769183      -23.7687645752
 H         9.2714288862        6.0723856758      -24.3838557398
 H        11.2382101444        5.7187643527      -21.1625985774
 H         9.8212667581        6.0647356646      -20.3341847743
 H        10.1994685042        7.1003957078      -21.5526333759
 H         3.4842285921        2.9026559367      -18.1393122430
 H         4.7147570161        2.9546526445      -19.4169994477
 H         3.0020860633        3.3866840925      -19.6739534289
 H         3.2548683049        6.7204523725      -18.0222921761
 H         2.4609992601        5.2605976104      -17.2591595261
 H         2.1361919721        5.7597393855      -18.8639034876
 H         8.6896567384        5.4103272668      -13.5687062269
 H        10.1504483306        4.3524279382      -13.6118617348
 H         8.6168521547        3.8696483692      -12.8450672262
 H        10.0512537258        4.2088486677      -16.5155327986
 H         9.1836354622        5.6381712345      -16.4385624199
 H         8.4901322172        4.1095828188      -17.0277887771
 H         6.5285117649       -3.0759352095      -14.5290254334
 H         7.1946721997       -1.8406293815      -13.4112379958
 H         7.2708754052       -1.6997991371      -15.2328010400
 H         3.8704066542       -2.8362472186      -15.1477554188
 H         4.7792462277       -2.0159662501      -16.3674429971
 H         3.4479688730       -1.1441698535      -15.5322394034
 H         0.9251157711       -6.2096189297      -10.5512142308
 H         2.4434728979       -5.3111979467      -10.3990118552
 H         1.6058826881       -5.4647866164      -11.9924006813
 H        -0.9517464639       -3.0846005744      -11.7056282132
 H        -1.3606822235       -4.5120344867      -10.6595376300
 H        -0.6583570580       -4.6793996450      -12.1923812317
 H        -0.1444700477       -3.7299277486       -2.6001466982
 H        -0.4985447738       -2.8986908452       -4.1184133088
 H         1.0468153636       -3.7650488858       -3.9197576264
 H        -0.9114208177       -7.1145568941       -3.8925903498
 H        -0.1775357362       -6.2403220223       -2.3839673285
 H         0.7820217433       -6.7715901620       -3.7594080000
 H        -6.3886268788       -3.4004469808       -5.6846202564
 H        -5.2718329137       -2.6831455763       -4.5147959375
 H        -6.7690557521       -2.0307625590       -4.5839788209
 H        -6.0470693701       -2.5169380768       -2.1264514973
 H        -6.4762808305       -4.0520882006       -1.4318862122
 H        -7.7569537296       -2.8955326617       -2.0375717007
 H       -13.2512811853       -9.0120854413       -3.3545736490
 H       -12.0233868569       -8.8156674809       -2.1272039539
 H       -11.4731587882       -9.4103688325       -3.4893514757
 H       -12.7398098607       -7.8555852574       -5.5544334259
 H       -10.9989715982       -7.5859417042       -5.6529980206
 H       -12.0963946956       -6.1415535254       -5.6040589813
 H       -14.1788236226       -2.4806225161        2.1207262596
 H       -14.8225408223       -1.2337034958        0.9288873670
 H       -13.2844208170       -2.0669161884        0.5026986910
 H       -15.3005592346       -4.5485675082        2.2246005595
 H       -16.7329970988       -4.5826395168        1.1759481449
 H       -16.4114120708       -3.2660434240        1.9902366436
 H       -15.3838358905       -3.0838902695       -7.1916782162
 H       -14.8590560206       -4.2173518879       -5.9609332528
 H       -14.4943744607       -2.4373936400       -5.8283719502
 H       -18.4127433543       -2.0369868924       -5.7815809144
 H       -17.9033986143       -2.6678034950       -7.2478889809
 H       -17.0471778564       -1.2668654921       -6.7727693509
 H       -20.6723265332       -7.9118257450       -4.3246752805
 H       -21.4736518059       -7.0618332993       -5.5828707259
 H       -22.3978745472       -7.4605834255       -4.0947562585
 H       -22.9810699420       -5.3322375690       -4.7412979734
 H       -22.0706264995       -3.9955789110       -4.1053088939
 H       -22.9566193877       -5.2948556073       -3.1236524117
 Na      -18.7508780815       -3.3920816759       -2.7906555944
 Na        6.4320206778        1.5949779374      -17.7728817903
