232

 C        -1.9766663486        9.9616569665      -16.6880177345
 C        -0.8875246911        9.1052676858      -16.0970238838
 O        -1.2904589115        8.4565233995      -15.1679052157
 C         0.5623837316        9.0914497087      -16.6504602636
 C         0.9321401895        7.5315949970      -16.9505199187
 O         1.1659358778        6.8623891839      -15.9806429807
 C         0.8953634233        6.9481484832      -18.4274061132
 C         0.1172331502        5.5544323878      -18.5087516773
 C        -1.2491051696        5.6815644633      -17.7967850547
 O        -1.7643723097        6.8007578725      -17.7293186230
 C        -1.9715106429        4.3102659075      -17.0311980626
 C        -0.7867443334        3.8667456408      -16.0979048429
 O        -0.3941340307        4.6765719459      -15.2857126662
 C        -0.2299310804        2.5017163440      -16.2327556007
 C         1.1205902610        2.1863947202      -15.4424312112
 C         2.3853870793        2.8560413681      -15.9260921468
 O         2.4320704911        3.1999890945      -17.0910244257
 C         3.6660461009        2.9981607335      -14.9923215067
 C         3.2378475816        3.2303537917      -13.5355645728
 O         2.3694219617        2.5364144978      -13.0473474358
 C         4.1164849207        4.0674602362      -12.6615321464
 C         3.5104136305        4.3650770822      -11.3072045116
 C         4.4421534745        4.9154892861      -10.3002068647
 O         5.6110231465        5.2484161439      -10.4610357705
 C         3.7819481992        5.2039155002       -8.8397782688
 C         2.4105219178        5.8851269667       -9.1702370913
 O         1.4374571845        5.1683117667       -9.1746369272
 C         2.4212677549        7.3524173835       -9.6019468207
 C         0.9406690798        7.8900778555       -9.6883023837
 C         0.1080355660        7.4695256237      -10.8866368655
 O         0.6082719042        7.5382801720      -11.9695999570
 C        -1.3946611861        7.0769638469      -10.7241666991
 C        -1.3948924808        5.6486933760      -11.4104933894
 O        -1.2878433984        5.5421826233      -12.6110316425
 C        -1.5397666886        4.4256882534      -10.5014706363
 C        -1.7441025900        3.0168794000      -11.1428081837
 C        -1.6185099903        1.9399363652       -9.9445969505
 O        -2.4595700756        1.9418795743       -9.0662160940
 C        -0.6149529043        0.7777250892      -10.0613521282
 C        -0.7515571057       -0.1789210717       -8.7495610502
 O         0.0937524778       -0.3903352447       -7.9127735752
 C        -2.1101461777       -0.9462870549       -8.7268565309
 C        -2.8419226200       -0.9790255454       -7.3966466524
 C        -3.3111207472       -2.4401678247       -6.9578324292
 O        -4.4310901073       -2.8307466528       -7.2849158233
 C        -2.3525207326       -3.4175695134       -6.2498056912
 C        -1.7377340507       -4.1945026836       -7.4722231774
 O        -2.3823711003       -4.8306821973       -8.3278636133
 C        -0.2875344317       -4.2182142849       -7.6751420010
 C         0.2518784246       -5.5284454526       -8.3257252950
 C         0.0510885591       -6.7704392578       -7.4348367000
 O        -0.3118276283       -6.6791665024       -6.2816168698
 C         0.2099502738       -8.2043400419       -8.0121704794
 C        -1.1429139000       -8.4436229302       -8.9056309112
 O        -1.2543910631       -7.7793052956       -9.9451803471
 C        -2.2248162826       -9.4141110417       -8.3833561037
 C        -3.5056205233       -9.4311534510       -9.2411918618
 C        -4.1957435797       -8.0336269047       -9.0090106190
 O        -4.1035215860       -7.3011672032       -8.0743560528
 C        -5.0100652341       -7.6558205419      -10.3481297110
 C        -5.9820945169       -6.5877752941       -9.9231468518
 O        -5.5587420122       -5.3959635510       -9.8294703524
 C        -7.3122659087       -7.0515482808       -9.3109249184
 C        -8.1072107408       -5.9292545297       -8.5826538203
 C        -7.7800132379       -6.0126940879       -7.0865443018
 O        -6.8021488876       -5.4609742650       -6.6518089377
 C        -8.8154297750       -6.7352187808       -6.1858715733
 C        -8.4032335571       -8.3061517238       -6.2599579014
 O        -7.2772800357       -8.6153318759       -6.6122920806
 C        -9.4424954597       -9.4006610100       -5.7919227059
 C        -9.0006402467      -10.9037808210       -5.7142647046
 C        -9.1364487883      -11.5330182694       -7.1744279594
 O        -8.7128287217      -10.9335732658       -8.1656852585
 C       -10.3677704355      -12.5249154653       -7.3432349817
 C       -11.6394150474      -11.4641091402       -7.2886137817
 O       -11.4884713956      -10.3429024868       -7.6522259321
 C       -12.9832977633      -11.9758039886       -6.8367501189
 C       -13.9412549428      -11.1184038699       -5.8877894375
 C       -13.3669861143      -10.4242839829       -4.7120907963
 O       -12.1641351563      -10.2357678000       -4.6545557698
 C       -14.2179182091      -10.0415791038       -3.4850399052
 C       -14.9807370841       -8.6723296538       -3.8504968710
 O       -15.8244935165       -8.6580233513       -4.7005799184
 C       -14.8720288027       -7.3335601810       -2.9568581361
 C       -15.3608103286      -10.9996739801       -3.0133423979
 C       -13.3982759140       -9.7385895419       -2.2209486503
 C       -10.3711923014      -13.2337540575       -8.7498482240
 C       -10.6413728323      -13.5175641699       -6.2619920281
 C        -8.4868634651       -6.2471898598       -4.7606382058
 C       -10.2810366822       -6.3720021872       -6.5271278744
 C        -4.1039012751       -6.9143825157      -11.2788172516
 C        -5.6338886489       -8.8481909022      -11.0719032311
 C         1.3972258911       -8.3778219529       -8.9734292065
 C         0.4031772550       -9.2041102586       -6.8439980727
 C        -1.3223962914       -2.8125002270       -5.3500888504
 C        -3.1867476569       -4.4308816522       -5.4200396973
 C        -1.0916571764        0.0431080173      -11.3529201360
 C         0.8588936282        1.4350332935      -10.1621045863
 C        -2.0327659394        7.0137961644       -9.2961878674
 C        -2.2837848431        7.9725811616      -11.6224363631
 C         3.4811717561        3.7211589417       -8.1593471244
 C         4.8785716109        6.0770009753       -8.0754000781
 C         4.3337247369        1.5970477498      -14.7506345842
 C         4.6336837570        4.0090280796      -15.5348790617
 C        -3.1243112694        4.9449441808      -16.1101778206
 C        -2.5129786050        3.3599826914      -18.0925297845
 C         0.6780318515       10.0624187944      -17.8059509374
 C         1.5280623810        9.5834669790      -15.4882795272
 H        -1.8255271118       10.4111215039      -17.6757405229
 H        -2.2250715850       10.7922866650      -16.0813930403
 H        -2.8027191713        9.2907913397      -16.7861755561
 H         1.9383119776        6.5923760404      -18.7672459709
 H         0.6102623890        7.7364174601      -19.0949224221
 H         0.8368248941        4.8062216792      -18.1489385146
 H        -0.0915422326        5.2349921019      -19.4747659373
 H        -0.1626087790        2.3952138376      -17.3491570362
 H        -0.9531004661        1.7034764062      -15.9076425097
 H         1.2387935287        1.1209194189      -15.5539870470
 H         0.7822309962        2.5372520321      -14.4464348249
 H         4.3754415150        5.0730777678      -13.0525410856
 H         5.0596392876        3.6657145349      -12.3886667711
 H         3.0777046219        3.4835609990      -10.8143550570
 H         2.7348695877        5.1774009924      -11.3910923390
 H         2.9563653552        7.4998104227      -10.5156776580
 H         2.9724029540        8.0167452098       -8.9444590627
 H         1.0720474225        8.9415621981       -9.7976764223
 H         0.3663357546        7.5871287735       -8.7531726866
 H        -2.3828223231        4.7370940928       -9.8215302784
 H        -0.7484110265        4.3898777026       -9.8314003736
 H        -1.0802602023        2.8315019811      -11.9013869146
 H        -2.7863221766        2.9447725566      -11.4858273227
 H        -1.8465292165       -1.8432447757       -9.2540344417
 H        -2.6491552724       -0.3196788995       -9.4934878225
 H        -3.6472330338       -0.3585316913       -7.3868157174
 H        -1.9744749676       -0.7301928444       -6.6174894203
 H         0.1947957972       -3.9618604417       -6.7156973456
 H        -0.0380878819       -3.4383906246       -8.3666612950
 H         1.3314837900       -5.3277488561       -8.5002555654
 H        -0.1778758549       -5.6661900995       -9.3238269096
 H        -2.5401859220       -9.1538530665       -7.3383309814
 H        -1.7024146816      -10.4118835285       -8.3721582619
 H        -4.1617600200      -10.1873300148       -8.9095543439
 H        -3.4493675678       -9.6040748701      -10.2897351036
 H        -7.1883153051       -7.9087414322       -8.6540325286
 H        -7.9412072748       -7.3802943913      -10.2010654211
 H        -9.2258721225       -6.1180393985       -8.6295933070
 H        -7.8641881947       -4.9112340021       -9.0797401790
 H       -10.3829873693       -9.4310357083       -6.4233096235
 H        -9.7731853837       -9.0137602484       -4.7467419844
 H        -9.7738298285      -11.4847605250       -5.2018900975
 H        -7.9965141581      -11.0717107040       -5.3146329242
 H       -12.9133361663      -12.9585559913       -6.3483587520
 H       -13.5162976174      -12.0996503084       -7.7272026712
 H       -14.7452042488      -11.8271817617       -5.6332181278
 H       -14.5272623168      -10.2678471968       -6.4053385871
 H       -14.8527813277       -7.2997704585       -1.8661671993
 H       -15.6407431600       -6.6197262460       -3.3966245172
 H       -13.9647648438       -6.9115349062       -3.3206387967
 H       -16.1388407045      -10.6780473972       -2.3227921513
 H       -14.9956343064      -12.0356856156       -2.6768242166
 H       -15.8410954631      -11.2134422348       -4.0185787856
 H       -14.0842184941       -9.3987372619       -1.4286658015
 H       -12.6220818820       -8.9485803350       -2.2644545557
 H       -12.9637702061      -10.6295182525       -1.7671029112
 H        -9.5947434333      -12.8658009982       -9.3326071530
 H       -11.3145529975      -12.8694807083       -9.2426536094
 H       -10.4627650673      -14.3493984541       -8.7163847059
 H       -10.9144638593      -13.1756246423       -5.2592200414
 H        -9.7665659226      -14.0573258729       -6.0617789633
 H       -11.4357621715      -14.2560895455       -6.4763552927
 H        -7.4645649935       -6.5614438051       -4.4599333810
 H        -9.1646009547       -6.6939977177       -4.0091480805
 H        -8.6929501930       -5.1364756563       -4.4944849815
 H       -10.3299028688       -5.3791370001       -6.9253082703
 H       -10.9418463998       -6.3786546729       -5.6593705987
 H       -10.8348995500       -7.0935386183       -7.1366617609
 H        -3.3021390197       -7.6074127822      -11.6101305745
 H        -3.6038880917       -6.0567951550      -10.7782248593
 H        -4.5214169068       -6.5368668298      -12.2175345297
 H        -5.0244098924       -9.2534628387      -11.8553645859
 H        -6.4345340838       -8.3314662020      -11.7164638017
 H        -5.9846474884       -9.6488546879      -10.5069484609
 H         2.3780195422       -7.9554494055       -8.7150743473
 H         1.1446469683       -7.8567104973       -9.8457570314
 H         1.7059597945       -9.4192262513       -9.1298669278
 H        -0.4618697969       -9.3613446829       -6.2013436976
 H         1.1205213271       -8.8207438678       -6.1253020036
 H         0.7472111188      -10.1917717823       -7.3029080197
 H        -0.7767643224       -3.6254415295       -4.8528922685
 H        -1.9065677127       -2.3270181819       -4.5365733294
 H        -0.6510508838       -2.0473934277       -5.7521190734
 H        -3.9718513698       -3.9122484113       -4.8584950328
 H        -2.5546002248       -4.9713298419       -4.7314040562
 H        -3.5815497926       -5.3727457223       -5.8993279452
 H        -2.1379659557        0.2023238097      -11.6008188053
 H        -0.8902596681       -1.0628289569      -11.4359391449
 H        -0.5758524665        0.4988033275      -12.1420507971
 H         0.8164183227        2.4667546352       -9.9244003225
 H         1.2918700737        1.3625445162      -11.1615935383
 H         1.5342619261        0.9494953514       -9.4898650086
 H        -1.7022110831        6.2755984505       -8.6191886460
 H        -3.1522567918        7.0110811270       -9.2883504157
 H        -1.8471337380        7.9299058667       -8.7497369696
 H        -3.2489288408        7.5619617533      -11.8330153661
 H        -1.8695266650        8.2813396010      -12.6033705077
 H        -2.3567105576        8.9688337987      -11.0416133263
 H         3.8713934414        2.9451833284       -8.8185349555
 H         2.3905383344        3.6127462673       -8.0143365353
 H         3.8010299382        3.6480169274       -7.0944278819
 H         5.6745867752        5.3743249440       -7.6368840247
 H         4.4311937934        6.5672580427       -7.2776617783
 H         5.3692894708        6.7636739927       -8.8942787360
 H         5.2229850565        1.6471058575      -14.0661760472
 H         4.7123467904        1.2612751490      -15.6823453913
 H         3.7143601139        0.7528709130      -14.4369035544
 H         4.1032659816        4.8508476216      -16.0914824081
 H         5.1780513205        3.4714894250      -16.2801664966
 H         5.2509565550        4.4194302770      -14.6926524373
 H        -4.0407371463        5.2525883336      -16.6074461643
 H        -2.7218034692        5.7754551897      -15.4989714004
 H        -3.5213689341        4.2274393247      -15.4403706359
 H        -3.1812335896        2.6433416119      -17.5887627669
 H        -1.7628144005        2.7974879117      -18.6758629820
 H        -3.1832373487        3.8960921757      -18.7527382919
 H         0.2521894917        9.5859787635      -18.7161983609
 H         1.7602699272       10.2326441212      -18.0375497998
 H         0.2084040932       11.0740865765      -17.7074031814
 H         1.2917267416        9.1534105428      -14.5120673751
 H         1.4706841487       10.6276128772      -15.5923507214
 H         2.5299055094        9.1957200326      -15.7973722757
 Na       -0.0741781431        6.8347966131      -14.0551598169
 Na       -4.9422504022       -4.8726112156       -7.7735835523
