232

 C        -1.9057430227       10.2135632508      -16.6983751759
 C        -0.8888966799        9.2828204187      -16.1752564525
 O        -1.2082917826        8.4683941456      -15.2921093140
 C         0.5157454342        9.2478820680      -16.7329287186
 C         0.8317155821        7.7008929007      -16.9538919098
 O         1.0068864826        6.9433156393      -16.0221156081
 C         0.9688144876        7.1709426858      -18.3848722151
 C         0.1961905477        5.8365526943      -18.4213386106
 C        -1.2506662030        5.9350069160      -17.8862944720
 O        -1.9009034467        6.9095219179      -17.8826851586
 C        -1.7522524690        4.5707680780      -16.9164947862
 C        -0.6401139312        4.0281889059      -16.1489824881
 O        -0.0218400920        4.6033173930      -15.2668448729
 C        -0.1676566233        2.5245988953      -16.3233808012
 C         0.9523028452        2.1825442168      -15.2696469906
 C         2.2581113808        2.6471456334      -15.8074272500
 O         2.2470598748        3.2425350651      -16.8627656033
 C         3.6837939798        2.6146918819      -14.9676147253
 C         3.3582947700        3.1313192866      -13.3894813952
 O         2.4672368134        2.5636351367      -12.7569567665
 C         4.1122531870        4.1958574816      -12.7015326785
 C         3.4595515589        4.4495050712      -11.3253286181
 C         4.4839225724        4.9823090328      -10.2626002667
 O         5.6804220591        4.9778483422      -10.4877188302
 C         3.7823844148        5.2805971019       -8.8232997348
 C         2.4517695396        5.8854123615       -9.1728713211
 O         1.3635425147        5.2751582170       -8.9858824371
 C         2.3809247235        7.3514774451       -9.6988652551
 C         0.9469728749        7.8661201470       -9.7116395905
 C         0.2034059064        7.4603722591      -11.0060841663
 O         0.8207053445        7.6118625597      -12.0579593814
 C        -1.3194827691        7.0639282521      -10.9513848432
 C        -1.4012144358        5.5326916354      -11.4735710800
 O        -1.3715660155        5.1753946463      -12.6055834453
 C        -1.6676493469        4.4203839940      -10.4579867411
 C        -1.7803911151        3.0412264628      -11.0587857919
 C        -1.7496204127        1.9634306524       -9.9582571161
 O        -2.3299782169        2.1622533416       -8.9013323481
 C        -0.6506092645        0.8541008303      -10.1374535300
 C        -0.8948580209       -0.2070014661       -8.9861025946
 O         0.0809194253       -0.3869581420       -8.2855304080
 C        -2.1046720265       -1.1752766565       -8.8462206750
 C        -2.4917631201       -1.0431896750       -7.3335287870
 C        -3.2328755719       -2.3973158133       -6.9395499955
 O        -4.4136949733       -2.6446338326       -7.1076764757
 C        -2.2913927561       -3.5456014856       -6.3499404660
 C        -1.6307740348       -4.3502434297       -7.5782151179
 O        -2.3873754170       -4.7927278220       -8.3918494795
 C        -0.1949897219       -4.4156316166       -7.8251230206
 C         0.4305921142       -5.7168735892       -8.2763041957
 C         0.0672298087       -6.8428230179       -7.3425583645
 O        -0.3892309306       -6.5629575744       -6.2482096725
 C         0.1413831145       -8.2711573931       -7.9217358234
 C        -1.2374101350       -8.5626468817       -8.6674562494
 O        -1.4345156157       -7.8937009723       -9.6329119205
 C        -2.2814662790       -9.6432332145       -8.1616547949
 C        -3.5898824985       -9.4159471505       -8.8573242385
 C        -4.1579663480       -7.9594711207       -9.0589775522
 O        -4.1996013624       -7.2071933619       -8.0888717888
 C        -5.0250818553       -7.5428507331      -10.3251177786
 C        -6.1390395354       -6.4517497045       -9.8978722655
 O        -5.9731410155       -5.2841562717       -9.9561705449
 C        -7.5296218351       -6.8577953330       -9.4526999320
 C        -8.2077223827       -5.8118730272       -8.5681712790
 C        -7.8638806843       -5.9417340958       -7.0571891839
 O        -6.7426656580       -5.6988940989       -6.6084910984
 C        -8.8942450499       -6.6765376593       -6.1273095150
 C        -8.5807929358       -8.2402315520       -6.2526592968
 O        -7.5478035876       -8.6820231612       -6.6453855635
 C        -9.5773007281       -9.1597404477       -5.6442934545
 C        -9.0809207744      -10.6088162023       -5.8168351519
 C        -9.2477005084      -11.4517752278       -7.2102070865
 O        -8.3821671731      -11.4378855147       -8.0436500245
 C       -10.4654091122      -12.4104476051       -7.3416041726
 C       -11.7724786837      -11.6442663570       -7.0952605743
 O       -11.8249317424      -10.4616945221       -7.4836088791
 C       -13.1125965216      -12.1198154631       -6.5107918836
 C       -13.9604069259      -10.9929205037       -5.8463587645
 C       -13.3390206137      -10.4815889111       -4.5404463184
 O       -12.1179055273      -10.4098021404       -4.5337730229
 C       -14.1635331516       -9.9633386533       -3.3869466888
 C       -15.1625430349       -8.7034998123       -3.7910590520
 O       -15.9165080442       -8.8647246475       -4.7218264779
 C       -14.8874542842       -7.4165364986       -3.1459297182
 C       -15.1399351855      -11.1334503882       -3.0687629446
 C       -13.1673870076       -9.6693454637       -2.1839822073
 C       -10.4504791258      -12.9563702597       -8.7470487139
 C       -10.0618248286      -13.4882995798       -6.3389828020
 C        -8.6014954993       -6.4031088643       -4.5994650875
 C       -10.3104542659       -6.4025569595       -6.5274607531
 C        -3.8813470189       -6.8383060417      -11.2274495235
 C        -5.7543165568       -8.6645877385      -11.0920644906
 C         1.2184523094       -8.3564309503       -9.0184798399
 C         0.4109181254       -9.2576757081       -6.7692342740
 C        -1.2127289482       -2.9392808737       -5.4360614458
 C        -3.1339152676       -4.6077637628       -5.6136190885
 C        -0.7193603693        0.0400902761      -11.5365535168
 C         0.7698523834        1.4659096178       -9.9909932032
 C        -1.8428004220        7.2050758855       -9.5366796866
 C        -2.2581352592        7.9818449800      -11.9512071032
 C         3.6044297389        3.8654895898       -8.0928407598
 C         4.7004717919        6.0525144485       -7.9276816502
 C         4.1990687814        1.1866198888      -15.0074856229
 C         4.5884428165        3.6355148792      -15.6663841557
 C        -2.9273343293        5.1146314599      -16.2179466140
 C        -2.2635683941        3.4432261296      -18.0172088479
 C         0.8019844482        9.9743101636      -18.0425791866
 C         1.5072165979        9.7502541191      -15.6704288262
 H        -1.6434328092       10.8863136071      -17.4922236307
 H        -2.1911276049       10.8944926751      -15.8269912334
 H        -2.8320438568        9.6669738840      -16.9868833711
 H         1.9445346389        7.0029612035      -18.6959340429
 H         0.4615810119        7.9247127452      -19.0631884821
 H         0.7934336588        5.1199270892      -17.8216090979
 H         0.2034830027        5.4003083052      -19.5216805704
 H         0.1656000935        2.1813678081      -17.2882037144
 H        -1.0820977200        1.9863300469      -16.1040955905
 H         0.9669451554        1.0907559030      -15.1089538011
 H         0.6725976953        2.7665687637      -14.4140701546
 H         3.9980992699        5.1167420126      -13.2875609464
 H         5.2510756015        4.0880209367      -12.5495688338
 H         2.9568313194        3.5039995850      -11.0152874345
 H         2.7433484032        5.2577764039      -11.4213359711
 H         2.9457795775        7.3956710597      -10.6685948210
 H         2.9224201881        8.0531336607       -9.0181563403
 H         0.9779393657        8.9874705736       -9.7311590167
 H         0.4948844653        7.4221557536       -8.8214652928
 H        -2.5666362395        4.6985703645       -9.9572728001
 H        -0.9282338791        4.4589062081       -9.5654321896
 H        -0.9783482586        2.8116480714      -11.8953216783
 H        -2.7763343839        2.9810683144      -11.4989876746
 H        -1.6036987462       -2.1741715177       -8.9969216221
 H        -2.8811765179       -1.0115504874       -9.5756212617
 H        -3.3905663283       -0.3038638671       -7.3281139615
 H        -1.7447933287       -0.7873023360       -6.6892188486
 H         0.3693125526       -4.1102055394       -6.9121604284
 H        -0.1287608928       -3.6163533473       -8.6324762875
 H         1.4961578792       -5.5731448042       -8.0128476498
 H         0.3042119226       -5.9739829210       -9.3568452257
 H        -2.5073219827       -9.3338898949       -7.1596443459
 H        -1.9739358969      -10.6501198892       -8.2765736732
 H        -4.3825022420      -10.0549088918       -8.3088046608
 H        -3.6667749447       -9.7956371497       -9.8963060557
 H        -7.3970105394       -7.8280325996       -8.8867895745
 H        -8.2657559963       -6.9812802582      -10.2056298419
 H        -9.2639253534       -5.8814409137       -8.7219728318
 H        -7.8644130346       -4.8774662615       -8.9482336396
 H       -10.5565009022       -8.9900694234       -6.0092048627
 H        -9.6236231010       -9.0453475093       -4.6158345436
 H        -9.5506251773      -11.1622813161       -4.9972591658
 H        -7.9972758211      -10.6219121215       -5.7934585829
 H       -13.0481250456      -12.9698676016       -5.8552809460
 H       -13.7396459076      -12.4855589241       -7.3946761167
 H       -14.9858116675      -11.3532029003       -5.7084523213
 H       -14.0662458283      -10.1314990560       -6.4528147148
 H       -14.7238474868       -7.6496142135       -2.1028024312
 H       -15.7464015480       -6.7965215108       -3.1516657334
 H       -14.0025052532       -6.8628382358       -3.5354518617
 H       -15.4701888165      -10.8012347595       -2.0838472718
 H       -14.6668047982      -12.0390730620       -2.8294372643
 H       -16.0367052455      -11.3379479244       -3.6640923562
 H       -13.5390336145       -9.6412663902       -1.1789383068
 H       -12.7475759713       -8.6921890947       -2.3713861879
 H       -12.3375450178      -10.4144605977       -2.1151508118
 H        -9.3892773183      -13.3522050234       -8.8082761395
 H       -10.4971668317      -12.2692346878       -9.5482573230
 H       -11.1867271538      -13.7358427937       -8.8202935389
 H        -9.9110616084      -13.0502535843       -5.3555216244
 H        -9.0361946217      -13.9822945975       -6.5171399757
 H       -10.7029532682      -14.3808289145       -6.2113655951
 H        -7.6078876011       -6.7435004018       -4.3088269710
 H        -9.2821550561       -6.9605344922       -3.9287159638
 H        -8.7122106413       -5.4169363088       -4.2906197284
 H       -10.6263789433       -5.3683047843       -6.5737524700
 H       -11.0562450400       -6.9375086623       -6.0201446028
 H       -10.4446373242       -6.7453428922       -7.5647159469
 H        -3.2665333234       -7.4445432743      -11.8874372921
 H        -3.2283827070       -6.1454389874      -10.7208605063
 H        -4.4933226714       -6.1994246853      -11.9071469416
 H        -5.1495679382       -9.2238389583      -11.8690365404
 H        -6.6049356156       -8.3269824217      -11.5380070145
 H        -5.9434623798       -9.4170382245      -10.2972508742
 H         2.2284293289       -8.1986835672       -8.6327021333
 H         1.1331936672       -7.6297013675       -9.8933281775
 H         1.3147579908       -9.3895305114       -9.3773901044
 H        -0.3649873713       -9.1144701354       -6.0030333769
 H         1.3711229294       -9.0473541933       -6.2635103791
 H         0.4175167932      -10.2528475237       -7.0988550179
 H        -0.7219971919       -3.7609963527       -4.9524588052
 H        -1.7125511418       -2.3445788535       -4.6881091682
 H        -0.5179973792       -2.2552948987       -5.8789466234
 H        -4.0337490643       -4.0869350284       -5.2794044132
 H        -2.6209237198       -4.9857462818       -4.7118437619
 H        -3.3188568632       -5.5844756157       -6.0062047891
 H        -1.7070598971       -0.0359615803      -11.9749359884
 H        -0.3922041999       -0.9168228699      -11.2819859853
 H        -0.0357664412        0.4279875554      -12.3413338877
 H         0.7827564465        2.5738182409      -10.0667758689
 H         1.3833906629        0.9878510230      -10.7538064801
 H         1.2198418283        1.2018737620       -9.0203594689
 H        -1.1650633209        6.7230325446       -8.8276635070
 H        -2.8502975082        6.9017910875       -9.3504014505
 H        -1.9380561254        8.2687820197       -9.1997361031
 H        -3.1883552527        7.4787220010      -12.3534755489
 H        -1.6596353932        8.2839198025      -12.8069747075
 H        -2.5320784485        8.8791316717      -11.4782001471
 H         4.5646652374        3.3611913105       -8.1229383635
 H         2.7750161378        3.2199164923       -8.2850631592
 H         3.3242002315        4.1952302478       -7.0941373860
 H         4.7790802298        5.5463694522       -6.9875985664
 H         4.2190289691        7.0550340319       -7.6423789645
 H         5.6415609603        6.0630966616       -8.3387045281
 H         5.2235087238        1.1745490515      -14.6226257003
 H         4.2634685424        0.7348676663      -16.0666510213
 H         3.7373115221        0.4428441519      -14.3347298575
 H         4.4009967040        4.6450184910      -15.5182402303
 H         4.5011916126        3.3811576236      -16.7140752714
 H         5.5881489654        3.3756872188      -15.3277699089
 H        -3.8342463212        5.2629527758      -16.7800385872
 H        -2.6683698936        6.0519566475      -15.7861090299
 H        -3.2279002642        4.4447360724      -15.3518421245
 H        -2.6594036558        2.5171992334      -17.5381426559
 H        -1.4194074337        3.1845464390      -18.6592680407
 H        -3.0581166500        3.8029521150      -18.7033881004
 H         0.0146002543        9.8889266987      -18.7705126712
 H         1.7600569160        9.7843869823      -18.4466639191
 H         0.8799395262       11.0143938729      -17.8063014284
 H         1.4442202049        9.0176521464      -14.8882253028
 H         1.0964027424       10.7304930122      -15.2976974325
 H         2.4576487651        9.8431902906      -16.1594277304
 Na       -0.2891021391        6.6812675382      -14.0894566522
 Na       -4.9205932397       -4.8090628363       -8.0331822625
