232

 C        -1.9386755147       10.3742024037      -16.6988508084
 C        -0.9174344616        9.3165210705      -16.2347902206
 O        -1.2128379611        8.5931828308      -15.3158665991
 C         0.6284997285        9.3030859782      -16.7931992589
 C         0.9080633815        7.7541361384      -17.0204102333
 O         1.0488009851        7.0862960201      -16.0288249452
 C         0.8638869566        7.1787185120      -18.4661848745
 C         0.2749637238        5.8370826590      -18.4630331090
 C        -1.1560178748        5.8608514149      -17.7547286444
 O        -1.8268890875        6.8054793368      -18.0192754453
 C        -1.6437509534        4.6969298575      -16.9667605285
 C        -0.6011806526        4.0321309253      -16.0135717657
 O         0.0137979358        4.7068947883      -15.2291129683
 C        -0.2018544486        2.4869541028      -16.1938492090
 C         0.9328811753        2.0591909048      -15.2190776486
 C         2.2281723914        2.7516354151      -15.7524475442
 O         2.2851352784        3.2870688985      -16.8464500921
 C         3.6008380010        2.5258983544      -14.9450497608
 C         3.3495123787        2.9692105434      -13.4438892689
 O         2.4780973778        2.3883393177      -12.8236624833
 C         4.1217701159        4.2365982933      -12.7867934357
 C         3.4901066824        4.5498032340      -11.3587891513
 C         4.4553353260        4.9744597075      -10.2354347940
 O         5.6675059513        4.9119659904      -10.3318485552
 C         3.8086825011        5.3535607563       -8.8214433305
 C         2.3879826355        5.8879042191       -9.0677232708
 O         1.3389038279        5.2599432711       -8.8962943694
 C         2.3391329171        7.3320311941       -9.6869371338
 C         0.9160512559        7.9228254707       -9.8181923108
 C         0.2458659004        7.5071263846      -11.1338198113
 O         0.7729206488        7.5056223600      -12.2035779884
 C        -1.2037807448        6.9648820758      -10.9627387021
 C        -1.4099187380        5.5259056972      -11.3968263784
 O        -1.3980630031        5.2742379601      -12.5854329973
 C        -1.7720802568        4.4866370166      -10.3563494773
 C        -1.7436128425        3.1562430607      -11.0157159411
 C        -1.6725276686        1.9714267708       -9.9817177305
 O        -2.2271422855        2.0617852649       -8.9025268050
 C        -0.6550816556        0.7932371468      -10.1471317844
 C        -0.8341767906       -0.3598809835       -9.0389876132
 O         0.1009358150       -0.4958804723       -8.2545819658
 C        -2.1131877331       -1.1381274329       -8.8632065405
 C        -2.4369816937       -1.1474854752       -7.3923937664
 C        -3.1294133284       -2.4422886574       -6.9283043847
 O        -4.3561636033       -2.5906463114       -7.1150907112
 C        -2.2749668210       -3.5790281175       -6.3973258936
 C        -1.6560751168       -4.2940648786       -7.7535176500
 O        -2.4343952378       -4.8930186224       -8.5380174511
 C        -0.0062757034       -4.2819296416       -7.8439645016
 C         0.3966572788       -5.6505227978       -8.3468143978
 C        -0.0112237586       -6.8371026837       -7.3633956066
 O        -0.4300330581       -6.6295824254       -6.2698589158
 C         0.0905127726       -8.4298790789       -7.8674024058
 C        -1.3123960493       -8.5805245609       -8.5573531320
 O        -1.5669217326       -7.9001043875       -9.5586918110
 C        -2.4401275848       -9.4216924106       -7.9994940504
 C        -3.7529621001       -9.4051482763       -8.8775186304
 C        -4.3476511056       -7.9331819300       -8.9137559714
 O        -4.0781523349       -7.1574889214       -8.0369309812
 C        -5.1158302766       -7.4340862362      -10.2604547468
 C        -6.1504444628       -6.3847088511       -9.9504933203
 O        -5.9064972291       -5.2117659417      -10.2253890437
 C        -7.5931423702       -6.8868089622       -9.4396665533
 C        -8.2270913325       -5.8291923975       -8.5065050874
 C        -7.8013358300       -6.0376935191       -7.0633681525
 O        -6.6813954532       -5.6777078234       -6.7069756490
 C        -8.9118823349       -6.6827393110       -6.0908203600
 C        -8.6059675951       -8.2613933693       -6.2479366480
 O        -7.5878634107       -8.5239141982       -6.8152286971
 C        -9.6503539271       -9.2377325692       -5.7115216721
 C        -9.0891687028      -10.7069177657       -5.7522535830
 C        -9.1328195453      -11.3154498298       -7.1561514950
 O        -8.2145427334      -11.5208491371       -7.9525471501
 C       -10.4391482265      -12.3693966995       -7.2358235024
 C       -11.8599027441      -11.6001834303       -6.9488259822
 O       -11.9948292163      -10.5211598046       -7.4977031299
 C       -13.1688304381      -12.2412159961       -6.2519083018
 C       -13.9822081401      -10.9570523531       -5.8385025912
 C       -13.2644680339      -10.4399940064       -4.6037970110
 O       -12.0608071216      -10.5074237807       -4.4215857389
 C       -14.1487064742      -10.0168619468       -3.3759010294
 C       -15.0468161096       -8.8414781326       -3.8487755580
 O       -15.8754403797       -9.0231462023       -4.6765220473
 C       -14.8996905876       -7.4378614763       -3.1779550276
 C       -15.1064911783      -11.2219680092       -2.9708113429
 C       -13.1651514963       -9.6147898659       -2.2977280129
 C       -10.5841569295      -12.8292224845       -8.8089331407
 C       -10.0519040079      -13.4664230861       -6.3037417661
 C        -8.6807667445       -6.3149075436       -4.5871371948
 C       -10.4050070741       -6.4128521912       -6.4289820075
 C        -4.0020428920       -6.8116300457      -11.1397428803
 C        -5.6625839397       -8.6312164172      -11.0353256330
 C         1.2179896220       -8.4512752146       -8.9280108977
 C         0.3820074639       -9.3885351328       -6.7062797911
 C        -1.1787681707       -2.9786987472       -5.3896934279
 C        -3.0896284170       -4.5886325668       -5.5730110047
 C        -0.7188749416        0.1465411924      -11.5716536013
 C         0.6429022784        1.5777848929       -9.9546214667
 C        -1.9190729476        7.1907776904       -9.6406273523
 C        -1.9408388479        7.8357387079      -12.0575139020
 C         3.5698019363        3.8842630683       -8.2024979267
 C         4.7733321037        6.2587134657       -7.9274846957
 C         4.0025681780        1.0048600737      -15.0687044389
 C         4.5647483292        3.4466022074      -15.6389277481
 C        -2.8541329843        5.1464537845      -16.0601646569
 C        -2.1201637022        3.6771699885      -18.1603638582
 C         0.7662833234       10.0654251872      -18.1678305715
 C         1.4668613848        9.7668349833      -15.5771698234
 H        -1.5663252901       11.0738295322      -17.4525779704
 H        -2.2988572389       11.0040133726      -15.8501655083
 H        -2.8162524034        9.8909997836      -17.1249717274
 H         1.8929296731        7.1534854384      -18.8159952192
 H         0.2576435010        7.8074271249      -19.1488231192
 H         0.9800650643        5.0859626810      -18.0432254219
 H         0.1271782571        5.5894053256      -19.5445048940
 H         0.3282533235        2.4077267910      -17.1276887604
 H        -1.0940726243        1.9080637653      -16.2924998214
 H         1.0397863108        0.9763329038      -15.1717789147
 H         0.6563670878        2.5367857718      -14.2790869548
 H         4.0851124061        5.1040648969      -13.4039499838
 H         5.1842471839        3.9888659220      -12.7061626172
 H         3.1802545092        3.5557975082      -11.0776420038
 H         2.6139482048        5.1806105476      -11.3720637984
 H         2.8502665094        7.2280875907      -10.6517370182
 H         2.9480852319        8.0916038870       -9.0862180352
 H         0.9860029229        8.9828374212       -9.8864182727
 H         0.3287780842        7.5205516906       -8.9065863027
 H        -2.6000769176        4.7291275407       -9.6854773913
 H        -0.8925319114        4.5750164238       -9.6804785364
 H        -0.9123705879        3.1338149414      -11.7489163481
 H        -2.6918043133        2.9996054021      -11.5738617952
 H        -1.8352867349       -2.0999503829       -9.0512386741
 H        -2.9063064752       -0.7941023686       -9.6075894977
 H        -3.1406750293       -0.3830350692       -7.1556050685
 H        -1.4926216687       -0.9704413519       -6.6870748394
 H         0.4750902066       -4.0717501416       -6.8359224251
 H         0.1791616946       -3.5135211593       -8.5816663074
 H         1.4476034869       -5.7643480148       -8.4533559145
 H        -0.1652536515       -5.8845756902       -9.3127561822
 H        -2.7171321780       -9.1871529552       -6.9022894019
 H        -2.0747313453      -10.4804180034       -8.2136342231
 H        -4.5032940976      -10.1379496217       -8.3983566416
 H        -3.6349660273       -9.7345373804       -9.8832347271
 H        -7.5827018314       -7.9200451920       -9.0194322432
 H        -8.2854247098       -6.8116962300      -10.2239557891
 H        -9.2531506586       -5.8702544197       -8.6021543124
 H        -7.8580940790       -4.9101116208       -8.8302610309
 H       -10.5255360016       -9.0722824028       -6.3235094930
 H        -9.9258555702       -9.0881295230       -4.7029136929
 H        -9.7821672689      -11.3160302686       -5.1676500941
 H        -8.0750908368      -10.7703873871       -5.4130714709
 H       -12.8411793579      -12.9305814951       -5.4137603832
 H       -13.7220836528      -12.8863090795       -6.9787145736
 H       -14.9757582517      -11.0352714951       -5.5454885844
 H       -13.9860780847      -10.3180479294       -6.7126497086
 H       -14.8900396696       -7.4098265402       -2.1034910956
 H       -15.8273018653       -6.8331322103       -3.4203293924
 H       -14.0030880382       -6.9266864405       -3.5247963578
 H       -15.3843344701      -11.1378906922       -1.9921240928
 H       -14.5323315273      -12.1179732648       -2.9252114654
 H       -16.0103746367      -11.3752356292       -3.5648467038
 H       -13.6283808389       -9.3862240372       -1.4006952028
 H       -12.6901764583       -8.7164459096       -2.6249776066
 H       -12.4348844230      -10.4032208602       -2.0176105164
 H        -9.9197617272      -13.5705834900       -9.1069057059
 H       -10.2285542468      -11.9826605400       -9.3804753211
 H       -11.6660764423      -13.0818086344       -9.0459687670
 H        -9.9363496234      -13.1934560095       -5.2833546569
 H        -9.1100873476      -14.0106655698       -6.5050926943
 H       -10.7834613768      -14.3337070908       -6.4177354135
 H        -7.6896120199       -6.5542321075       -4.2850992338
 H        -9.2866944239       -6.7797911849       -3.8708337761
 H        -8.7374750478       -5.2460558729       -4.5042541491
 H       -10.8578351730       -5.4231746353       -6.3253719506
 H       -10.9895813623       -7.0676768388       -5.8044996827
 H       -10.7018008261       -6.6927188102       -7.4982458708
 H        -3.2910465034       -7.4767384983      -11.5670417106
 H        -3.4127257618       -6.1002902939      -10.6387924070
 H        -4.4854985752       -6.2689138926      -11.9725015228
 H        -4.9103995931       -9.3858836309      -11.4145978187
 H        -6.2945408762       -8.2600341948      -11.9022804022
 H        -6.2370674222       -9.1642744534      -10.3359856333
 H         2.1811545006       -8.1405306932       -8.5163974567
 H         1.0088334469       -7.7434285919       -9.7102529744
 H         1.4297823432       -9.4291253315       -9.4263091964
 H        -0.0977367246       -9.1539275894       -5.7803705588
 H         1.4511569005       -9.4532397974       -6.5677896179
 H         0.0955230593      -10.3894586044       -7.0049666197
 H        -0.6158835159       -3.8132998153       -5.0224657378
 H        -1.7728541990       -2.5478917912       -4.5505672490
 H        -0.5461951274       -2.1759634700       -5.6806584751
 H        -3.9726642596       -4.1318825935       -5.2080234991
 H        -2.5785019462       -5.0317307796       -4.7822054921
 H        -3.3169395524       -5.5523812315       -6.0827610378
 H        -1.7200949314       -0.2442170708      -11.8136851092
 H         0.0080739445       -0.7115953840      -11.4854707656
 H        -0.4001184819        0.8071074147      -12.3793427559
 H         0.5794567495        2.5926353756      -10.3459172861
 H         1.4769926581        0.9763061826      -10.4184737409
 H         0.8532892874        1.6905400353       -8.8736842712
 H        -1.4266740874        6.6498767461       -8.9177541990
 H        -2.9991903246        6.9836657883       -9.6415790150
 H        -1.9697547085        8.2481724970       -9.2573027101
 H        -2.8638325003        7.3750080996      -12.2984440841
 H        -1.3714976664        7.9263275473      -12.9470706945
 H        -2.1927111893        8.8400978639      -11.7258004504
 H         4.4665265669        3.6303293851       -7.7486855989
 H         3.3318481644        3.1139197573       -8.9284256552
 H         2.6368709500        3.8288134450       -7.5856244751
 H         4.4553367635        5.9260545270       -6.9533052009
 H         4.5307314362        7.2159658287       -7.9742679598
 H         5.8178671331        5.9881964838       -7.9989893439
 H         5.0136616513        0.9089044270      -14.6820805140
 H         4.0075578505        0.6147034511      -16.0852146703
 H         3.5193559259        0.3224331531      -14.3823208523
 H         4.5484969794        4.4849187170      -15.2833436937
 H         4.3598548117        3.4391635524      -16.6380587086
 H         5.5922608038        3.0259595092      -15.4826719733
 H        -3.6131361289        5.6303697755      -16.6512420982
 H        -2.4336663222        6.0132047636      -15.4498620094
 H        -3.4196598908        4.4743315870      -15.3263812405
 H        -2.2985819556        2.6852904172      -17.6597015057
 H        -1.3488496273        3.5553563747      -18.8854817373
 H        -2.9960759430        3.9274269962      -18.7090241981
 H        -0.2075364413       10.1178181678      -18.6501546398
 H         1.5107982944        9.7658986376      -18.8583125336
 H         1.0681453636       11.0701128654      -18.0332833778
 H         1.3748413777        9.0000255575      -14.8478384620
 H         0.9185185268       10.6215942240      -15.1451337985
 H         2.4808073800       10.0483648481      -15.9812533476
 Na       -0.3326816700        6.6565805871      -14.1715736266
 Na       -4.8112201558       -4.8631149059       -8.0022563985
