232

 C        -1.8697757142       10.6073789573      -16.7646419867
 C        -0.9191871138        9.4993180089      -16.2574868089
 O        -1.3096086427        8.7274134886      -15.3858180974
 C         0.5287796371        9.3775315121      -16.8529429004
 C         0.9519652515        7.9398544988      -17.1649867609
 O         1.3123934987        7.2124365416      -16.2338070586
 C         0.9740805527        7.3523067837      -18.6117125211
 C         0.4579538089        5.8941424244      -18.3349982263
 C        -0.9342210923        5.9177079995      -17.7855327115
 O        -1.6959070054        6.8097487065      -18.0928055420
 C        -1.5446106210        4.7183094858      -17.0724997164
 C        -0.4609463546        3.9700880989      -15.9694548070
 O         0.0850474462        4.5611256455      -15.0613740053
 C        -0.3490250209        2.4090807489      -16.0227304266
 C         0.9733092300        1.9934782103      -15.2951641678
 C         2.1865103209        2.8290650638      -15.8541539096
 O         2.1964843671        3.5237102305      -16.8594246106
 C         3.4767481084        2.4769215377      -14.9198753825
 C         3.3444801326        2.8151105897      -13.3659057544
 O         2.5703331875        2.0971748587      -12.7424617966
 C         4.1386907553        4.0215066145      -12.6823500736
 C         3.4502491671        4.4979840572      -11.4529338182
 C         4.4450705849        4.8881915781      -10.3340230440
 O         5.6653205425        4.8984541361      -10.4068020918
 C         3.7786176965        5.1624207581       -8.9540220408
 C         2.3299655660        5.9817712050       -9.2218657079
 O         1.2419490400        5.5506403209       -8.8183462521
 C         2.4058844696        7.4237395728       -9.6693439113
 C         1.0291902640        8.0433038324       -9.9766991548
 C         0.1861027684        7.4637532863      -11.1421204045
 O         0.7938828779        7.0923707539      -12.1499622705
 C        -1.3987244431        7.1089092150      -11.1145850659
 C        -1.5315706683        5.5426772205      -11.5304113545
 O        -1.3287531655        5.1684891049      -12.6634523850
 C        -1.6790380600        4.4646616841      -10.3876184273
 C        -1.8116286299        2.9865444156      -10.9412260545
 C        -1.6140805542        1.9403227175       -9.8018672729
 O        -2.3594466825        1.8787610635       -8.8506644393
 C        -0.5516942449        0.8695326822      -10.0817061192
 C        -0.7038043759       -0.2364682607       -9.0396572681
 O         0.2393852075       -0.6963840791       -8.4371485291
 C        -2.1113506487       -0.9566336806       -8.9375975000
 C        -2.5049449637       -1.0349729105       -7.4137978017
 C        -3.1092347758       -2.5336773414       -7.0383921228
 O        -4.2083222822       -2.8407224726       -7.3459464943
 C        -2.1681753343       -3.6148610215       -6.3929887212
 C        -1.5526593245       -4.3745625700       -7.6583569787
 O        -2.3452126902       -4.6120917735       -8.4950021553
 C        -0.0260538249       -4.5156859979       -7.9218730100
 C         0.2044371098       -5.9158448738       -8.4288647448
 C        -0.1448007551       -6.9746696232       -7.3820336387
 O        -0.4713278873       -6.6057031241       -6.2603769640
 C        -0.0742876662       -8.4779248298       -7.8488916763
 C        -1.4886231246       -8.4677332692       -8.4766623017
 O        -1.6549663709       -7.9755275390       -9.5546803022
 C        -2.5407119364       -9.1321777052       -7.7318757689
 C        -3.7923948183       -9.2404901102       -8.6342963885
 C        -4.4207652461       -7.8767215498       -8.8830403373
 O        -4.2688187341       -7.0139892473       -8.0239625443
 C        -5.0470008644       -7.3963176896      -10.2629963126
 C        -6.2538113197       -6.3336923866       -9.9408583256
 O        -5.9361076186       -5.1731317877      -10.1625310198
 C        -7.6527100819       -6.8030100208       -9.4765238723
 C        -8.2852109363       -5.7420872839       -8.5455051924
 C        -7.9311709718       -5.9082090162       -7.0965239521
 O        -6.8103415264       -5.6556712676       -6.7118684692
 C        -8.8739399881       -6.5666755012       -6.0818680454
 C        -8.5811685099       -8.2442042946       -6.4093012129
 O        -7.6123804322       -8.5727608965       -7.0821482764
 C        -9.6071235454       -9.2311399279       -5.8708868720
 C        -9.0396747398      -10.5805022381       -5.4552087690
 C        -9.1906628398      -11.5463720486       -6.9084664631
 O        -8.3267434720      -11.4639785434       -7.7331825013
 C       -10.5065562830      -12.3424418883       -7.2881340270
 C       -11.7364456151      -11.5041119267       -6.9816883654
 O       -11.9049279004      -10.4293805563       -7.5535107514
 C       -12.8697629968      -12.2630128113       -6.2039653918
 C       -13.8863703907      -11.4617434671       -5.5171630265
 C       -13.1940314561      -10.5891112607       -4.4429635389
 O       -11.9821692401      -10.4581985787       -4.4189189469
 C       -14.0598190362      -10.0641662650       -3.2566339346
 C       -15.0408240272       -8.9735311118       -3.8476159710
 O       -15.8656447225       -9.2765563225       -4.6975007265
 C       -14.9693825522       -7.5049588808       -3.3846456994
 C       -14.8959006779      -11.2876636476       -2.7137640896
 C       -13.1912060711       -9.5149433117       -2.0512055021
 C       -10.5949498404      -12.6594591387       -8.7848718341
 C       -10.5861501655      -13.7759662462       -6.4879498278
 C        -8.4943453023       -6.1318160789       -4.6812145481
 C       -10.4047554058       -6.3297330155       -6.3595829288
 C        -3.8867529995       -6.7898334877      -11.1339950522
 C        -5.7019349173       -8.6375304093      -10.9109614976
 C         0.9940090875       -8.7417121409       -8.9551502405
 C         0.0598205735       -9.3705352636       -6.5932578382
 C        -1.0249769727       -3.0989085112       -5.3550290808
 C        -3.0789485549       -4.6893652445       -5.6116501735
 C        -0.6972418964        0.2744408834      -11.5354177803
 C         0.9163514665        1.4465992275       -9.9485053582
 C        -1.9464323702        7.5030279160       -9.7119337619
 C        -2.1323850339        8.1092197644      -12.0674837525
 C         3.5969747732        3.8837820055       -8.0782399673
 C         4.6824731067        6.2227401783       -8.1875828630
 C         3.6786019111        0.8727688078      -14.9661320477
 C         4.8380399903        3.0601751547      -15.5055717769
 C        -2.7057688440        5.0822588829      -16.0262762569
 C        -2.2054170262        3.7279017660      -18.0851193045
 C         0.7377474941       10.3618591184      -18.0221054693
 C         1.4777884384        9.9931392549      -15.7402000599
 H        -1.3223357499       11.4699231169      -17.0662282264
 H        -2.6278070188       10.8565971298      -16.0378386515
 H        -2.4401285157       10.2788417232      -17.6332238905
 H         2.0527597479        7.4711180625      -18.8103271710
 H         0.3294493531        7.8722614493      -19.3378032227
 H         0.9714052083        5.4654703853      -17.5093415111
 H         0.4356515015        5.2444423582      -19.1991956951
 H        -0.3313530214        1.8746698247      -16.9994266369
 H        -1.3070630526        2.1137125742      -15.5102612868
 H         1.0926528862        0.9230564856      -15.5280066469
 H         0.8186138287        2.1556162487      -14.2308777429
 H         4.3396667455        4.9100740348      -13.3010149160
 H         5.1545908450        3.6302256174      -12.5799548649
 H         2.7704788371        3.6820111749      -11.1271678086
 H         2.7988760606        5.3528709715      -11.6820902745
 H         3.1908050153        7.5803874787      -10.4163254389
 H         2.6782432317        7.8516849096       -8.7280651443
 H         1.1429291727        9.1048176453      -10.3281839275
 H         0.4565009375        7.9113992993       -9.1244453762
 H        -2.4600840544        4.7098569253       -9.6929445801
 H        -0.7747755576        4.5776337209       -9.7833319865
 H        -0.9996557124        2.8220142860      -11.6730674062
 H        -2.6899115970        2.7987156986      -11.4976860321
 H        -2.1991821939       -2.0358946605       -9.3947995554
 H        -2.8094926688       -0.3298740168       -9.3839571494
 H        -3.1955796410       -0.1653601790       -7.1859623358
 H        -1.7887689469       -0.9805135807       -6.7330928212
 H         0.4411955097       -4.4214077286       -6.9835400626
 H         0.2337572204       -3.8041520413       -8.7270387863
 H         1.2630629653       -6.0850242111       -8.7724851448
 H        -0.5147289516       -6.1246482439       -9.1582061770
 H        -2.7171047416       -8.3898633395       -6.9686633580
 H        -2.3703037110      -10.1270337731       -7.4128821273
 H        -4.5565091781       -9.7758723960       -8.1106200930
 H        -3.5637815689       -9.7202736717       -9.6226189339
 H        -7.6161605775       -7.7551645975       -8.9663765475
 H        -8.2941732267       -6.8227170856      -10.4153431242
 H        -9.4260902934       -5.8446241924       -8.6506059970
 H        -7.9598693832       -4.6595851741       -8.7410393675
 H       -10.2265005621       -9.3933240920       -6.8238455033
 H       -10.3455613679       -8.8861035880       -5.0644897394
 H        -9.6556394581      -10.9529261679       -4.6352378713
 H        -7.9565806063      -10.5184764892       -5.2158401767
 H       -12.4617356459      -12.9687186940       -5.5366898488
 H       -13.3552268907      -12.8913251014       -6.9444031985
 H       -14.7856923293      -12.0461243405       -5.0824678874
 H       -14.3918051384      -10.7735566999       -6.2479057687
 H       -15.4306009860       -7.4366255458       -2.3730968383
 H       -15.5593932891       -6.8215706038       -3.9139582747
 H       -13.8935952845       -7.2399457347       -3.2870166400
 H       -15.2802957945      -10.9700139958       -1.6705853595
 H       -14.2961760922      -12.1721894209       -2.4465943128
 H       -15.7712295418      -11.5616248484       -3.3155016730
 H       -13.7927626852       -8.8868387251       -1.3395795873
 H       -12.3307162541       -8.9221552413       -2.3624203811
 H       -12.8575475104      -10.3450805750       -1.4489789646
 H       -10.1121655075      -13.6919497058       -8.9342196284
 H       -10.1194910630      -12.0295978293       -9.5213109039
 H       -11.6115257298      -12.8093125746       -8.9371866254
 H       -10.5590776773      -13.6217996592       -5.4165692663
 H        -9.7341737717      -14.4325683176       -6.5917843866
 H       -11.3016519072      -14.4197193051       -6.8374317140
 H        -7.3973880867       -6.2755157489       -4.4770402718
 H        -8.9519645329       -6.8124474658       -3.9008696482
 H        -8.6168511211       -5.0565077366       -4.5269457784
 H       -10.5300017982       -5.2552448182       -6.6367071808
 H       -11.0729984470       -6.4365810668       -5.4810764487
 H       -10.8478686390       -6.7290240309       -7.2349618971
 H        -2.9953316468       -7.4077919909      -11.0125045856
 H        -3.4665770882       -5.8947950597      -10.6521421822
 H        -4.0734120955       -6.5611472912      -12.1686742873
 H        -5.0640016671       -9.5012607681      -10.7891185748
 H        -5.8251080570       -8.4538507942      -11.9081406141
 H        -6.7255790019       -8.8982112295      -10.4584657061
 H         1.9380005646       -8.2842428736       -8.6653041260
 H         0.7492794762       -8.4645333935      -10.0067152625
 H         1.0966190341       -9.7887804401       -9.0965916801
 H        -0.5385425616       -8.8328823785       -5.8145448451
 H         1.1176840238       -9.4962960910       -6.3084589659
 H        -0.3437913858      -10.3827315962       -6.6087972856
 H        -0.4883215590       -4.0222610455       -5.0575810762
 H        -1.2578438532       -2.4308467927       -4.5383589909
 H        -0.2981344594       -2.5389226833       -6.0008048204
 H        -3.8942103746       -4.3522797726       -4.9543176636
 H        -2.4509327751       -5.3922013889       -4.9837794236
 H        -3.4534046136       -5.3794999466       -6.3274034204
 H        -1.1964641699       -0.7073243526      -11.5000092671
 H         0.2423631998        0.2028905055      -12.0215736688
 H        -1.3802405770        0.9514901516      -12.1071312642
 H         1.3336929451        1.6331441138      -10.9360498684
 H         1.4644383405        0.7344360475       -9.3997342270
 H         0.9356776034        2.4121327830       -9.4755292274
 H        -1.6827963819        6.8656791559       -8.8184301701
 H        -3.0070203823        7.4508990260       -9.8343892415
 H        -1.8094158177        8.5202198712       -9.4124080412
 H        -3.1774471343        7.7265501414      -12.2973689354
 H        -1.5720534332        8.2744810954      -12.9952489177
 H        -2.3770448533        9.0535663850      -11.6224475157
 H         3.8249333175        4.1801457127       -7.0077064593
 H         4.2524003379        3.0410065597       -8.3493088059
 H         2.6487042615        3.4712259154       -8.3216906835
 H         4.1971572612        6.8719761017       -7.4281723040
 H         5.2693393303        6.8229674008       -9.0323749388
 H         5.3413937023        5.5881242118       -7.6328863363
 H         4.5130943827        0.4307803817      -14.5070771588
 H         3.7047184655        0.5502769480      -16.0115246860
 H         2.9428507134        0.3408894307      -14.4011893471
 H         4.6479026068        4.1377436088      -15.5984761691
 H         5.0717637479        2.6234393674      -16.5661195067
 H         5.7036880809        2.8559569510      -14.8626035821
 H        -3.3713736679        5.9554606936      -16.2505715786
 H        -2.4847516747        5.1277129413      -14.9908199705
 H        -3.3673594994        4.2263045427      -16.0426800388
 H        -2.7406946508        2.8784918346      -17.7850472398
 H        -1.3769895732        3.3503771216      -18.7167286210
 H        -2.7810978927        4.3118909862      -18.8299038365
 H         0.2495475638       10.1625868968      -18.9830125844
 H         1.8249533234       10.4864207763      -18.2354117827
 H         0.4861629116       11.4223308426      -17.7856643355
 H         1.2168730356        9.4387819981      -14.8249799849
 H         1.0943983809       10.9784196043      -15.5059706821
 H         2.4471764166       10.0429807441      -16.1320287882
 Na       -0.2367544719        6.7916102117      -14.4011621336
 Na       -4.7531722047       -4.9020042345       -7.9582128967
