232

 C        -1.8847881523       10.6351871187      -16.7775932618
 C        -0.8689295227        9.6385944935      -16.3444573579
 O        -1.1326978000        8.7160409024      -15.5841212604
 C         0.6264051439        9.6021808786      -16.9076206631
 C         0.9863259127        8.1516420570      -17.0351571008
 O         1.4574587952        7.6062489320      -16.0404200024
 C         0.9632963824        7.4339403487      -18.4474057627
 C         0.5802810182        5.9326398994      -18.3056540150
 C        -0.8820579153        5.8080782908      -17.6929658668
 O        -1.5518797164        6.8498688685      -17.8580048794
 C        -1.6004539980        4.6642995781      -17.0741944408
 C        -0.4790946132        3.9756901546      -16.1106017912
 O         0.1029670646        4.6476110397      -15.2380570520
 C        -0.3206783439        2.4109590486      -16.1216397196
 C         0.9378284479        1.8365592721      -15.3778682890
 C         2.2583438595        2.6464107473      -15.6575337097
 O         2.3844015654        3.5877426078      -16.4086418989
 C         3.5226458082        2.2050558191      -14.8375352386
 C         3.3346987341        2.5759076198      -13.3619125124
 O         2.4746773637        1.9559746456      -12.7690915120
 C         4.0946588571        3.7167077421      -12.7413731858
 C         3.2592543732        4.3082434082      -11.6076215637
 C         4.2063539742        4.9091633614      -10.4930376715
 O         5.3874381274        4.8851418300      -10.6095089678
 C         3.6835887748        5.3519244008       -9.0184644393
 C         2.3752905590        6.0673716936       -9.2323728061
 O         1.3433601360        5.5116645201       -9.0210430259
 C         2.3331638987        7.4371184301       -9.9634853891
 C         0.9374295553        8.0124504888      -10.1195270543
 C         0.1811993790        7.3042237024      -11.2377940527
 O         0.8192881253        6.8881054228      -12.1783321055
 C        -1.3751625937        7.2291277444      -11.0840148118
 C        -1.5111337861        5.7351432853      -11.4884591137
 O        -1.4441866760        5.5211282100      -12.7117728149
 C        -1.5855958667        4.6451440335      -10.3617693290
 C        -1.6840007719        3.2518969942      -10.8561093533
 C        -1.5558257612        2.0718113858       -9.8629854567
 O        -2.3717083337        1.9916520941       -8.9978843465
 C        -0.5101830049        0.8009264257      -10.0443800699
 C        -0.6535996243       -0.3974914799       -8.9463042568
 O         0.3250020981       -0.9670763629       -8.5356012244
 C        -2.0655900365       -0.9081684994       -8.7089633432
 C        -2.3886517033       -1.0092956625       -7.2573768928
 C        -3.0013437079       -2.4611210149       -7.0366092226
 O        -4.0629225247       -2.7435016003       -7.5547502722
 C        -2.0695294723       -3.5487228063       -6.4379579502
 C        -1.5961569536       -4.3823555363       -7.6930706967
 O        -2.3495297255       -4.7493379800       -8.6316268916
 C        -0.0228952192       -4.5244900749       -7.9099256357
 C         0.2890690817       -5.9865665822       -8.4957172037
 C        -0.0924444678       -6.9939298998       -7.3797602662
 O        -0.3970321646       -6.6325824787       -6.2649271397
 C        -0.2239054780       -8.5609107460       -7.7651054568
 C        -1.6009930376       -8.6714986947       -8.3727793837
 O        -1.7922724369       -8.3299231680       -9.5413798833
 C        -2.8669886914       -9.1332717828       -7.5950025947
 C        -4.1848101110       -9.2600324581       -8.4686103456
 C        -4.6831693492       -7.7464157338       -8.7938749373
 O        -4.4893343657       -6.9409023222       -7.9103142851
 C        -5.2179197313       -7.4004554189      -10.2313584739
 C        -6.2326103794       -6.3306610518       -9.9624026004
 O        -5.8525827662       -5.1814129439       -9.8590358674
 C        -7.6591169637       -6.7351877229       -9.6610948198
 C        -8.3389163010       -5.6745421882       -8.7567483045
 C        -7.8731072930       -5.8399909953       -7.2585446520
 O        -6.8307082902       -5.3058385310       -6.8747910785
 C        -8.7380268847       -6.6280428251       -6.2787484252
 C        -8.6006012405       -8.1912435069       -6.4664505150
 O        -7.5931627230       -8.6387692044       -7.0107210464
 C        -9.6927854583       -9.0387622015       -5.7428742924
 C        -9.3711497484      -10.6365034079       -5.6296185694
 C        -9.2274392707      -11.4450038384       -6.9328119301
 O        -8.2114616170      -11.6037867632       -7.5695216963
 C       -10.4976524148      -12.4817805492       -7.3861247901
 C       -11.8078555157      -11.6064709132       -6.9477525424
 O       -11.8459605631      -10.4431582273       -7.2455584358
 C       -13.0555914871      -12.3105175708       -6.3329763985
 C       -13.8090752946      -11.6343064363       -5.2008390878
 C       -13.1707765651      -10.6836307151       -4.0949510089
 O       -12.0461844884      -10.2433100286       -4.2578350754
 C       -14.0642973729      -10.1092908315       -2.9674601741
 C       -15.0514250687       -9.1488633666       -3.8167192469
 O       -15.7914598656       -9.6351895783       -4.6654102002
 C       -14.9733154031       -7.6662645953       -3.5146688784
 C       -14.9895854343      -11.1269541550       -2.2605990000
 C       -13.1545491323       -9.3671674442       -1.9388248893
 C       -10.2121638222      -12.6644715896       -8.9433206565
 C       -10.3662520764      -13.8214414622       -6.7020527197
 C        -8.2789590054       -6.4535170273       -4.8101697900
 C       -10.1942042444       -6.1496572076       -6.4474816035
 C        -4.1242614994       -6.7926363651      -11.1622203220
 C        -5.8054204502       -8.6765366493      -10.9929062709
 C         0.9269800952       -9.0782292196       -8.7275576711
 C        -0.0593120558       -9.3372036606       -6.4688146980
 C        -0.9365452784       -2.9318471616       -5.5872468636
 C        -2.7985018011       -4.6209807826       -5.5240138531
 C        -0.7578483258        0.1589996246      -11.4358648371
 C         0.9545668034        1.4346785404       -9.8698412137
 C        -1.9004887915        7.3890564034       -9.6475359246
 C        -2.0869447841        8.0048450969      -12.1105182375
 C         3.2706273575        4.1561488990       -8.1621732633
 C         4.8313817838        6.2416799501       -8.3080622017
 C         3.6432797332        0.6778236068      -14.8870230677
 C         4.8547485809        2.8816348720      -15.5757350130
 C        -2.7726241972        5.3174668123      -16.1476253672
 C        -2.0470626880        3.5973009589      -18.0570308676
 C         0.7626297765       10.5000306908      -18.1276735894
 C         1.4686988722       10.2059924588      -15.6848351782
 H        -1.9905525289       11.4897062116      -16.0398949840
 H        -2.7860987797       10.0325785427      -16.8843641404
 H        -1.7201769486       11.1110290615      -17.7541846741
 H         1.9935944814        7.3074407861      -18.8265184401
 H         0.3564243374        8.0533125929      -19.0726301723
 H         1.4148671785        5.5200760037      -17.6208600076
 H         0.5542940693        5.5321815678      -19.3493581233
 H        -0.1432703586        2.1746588360      -17.1592564972
 H        -1.2120070620        1.8752860508      -15.8375718298
 H         1.0162343820        0.7935289904      -15.6931967704
 H         0.6816057820        1.7700483478      -14.2988978300
 H         4.2428375730        4.4559296821      -13.5623581061
 H         5.1675943229        3.5148385865      -12.4808686281
 H         2.7166046235        3.4299630793      -11.2054534037
 H         2.4532294781        5.0093040231      -11.9319305266
 H         2.7102203521        7.4043606661      -10.9879752755
 H         2.9260733331        8.0931014977       -9.2559508601
 H         0.9600035084        9.0652777901      -10.4121877016
 H         0.2834709584        7.8172084746       -9.1867275946
 H        -2.5096851045        4.8153714359       -9.7273920405
 H        -0.7394617594        4.9105426184       -9.6992792445
 H        -1.0948273820        3.0564188201      -11.7435900480
 H        -2.7511524532        3.1154422026      -11.2973866102
 H        -1.9736905485       -1.8839241370       -9.0585391046
 H        -2.9331706714       -0.4162785536       -9.2939552908
 H        -3.0048555877       -0.2322623223       -6.8891300441
 H        -1.5134803769       -0.9659181224       -6.4618568176
 H         0.4488708271       -4.3668631561       -6.8871736287
 H         0.2050418108       -3.9203864457       -8.7670230262
 H         1.3279165056       -6.1795219956       -8.6531670687
 H        -0.3648387995       -6.2219645981       -9.4121629873
 H        -3.0827273349       -8.4292322124       -6.7704595864
 H        -2.7109838749      -10.2134751867       -7.3089989313
 H        -5.0227384129       -9.6732200944       -7.8313458439
 H        -3.9736833919       -9.8898172056       -9.3389376416
 H        -7.5536639942       -7.7020866252       -9.1054578763
 H        -8.0777539839       -6.8845598881      -10.6443243254
 H        -9.3890259268       -5.5866684777       -8.8244833530
 H        -7.9068908191       -4.7182773580       -8.9750412999
 H       -10.6548600046       -8.9098206832       -6.1355086537
 H        -9.6992619795       -8.6846684980       -4.7460207835
 H       -10.1266926316      -11.2102829080       -5.0797023457
 H        -8.3794238581      -10.7109903909       -5.1821689931
 H       -13.0121337479      -13.4529879380       -6.3037058564
 H       -13.7053115905      -12.2328496983       -7.2185734568
 H       -14.3844693119      -12.3748249544       -4.7567527112
 H       -14.5847432415      -10.9810488408       -5.5449540512
 H       -15.7596275475       -7.2571264040       -2.9119144581
 H       -15.2773357290       -7.2247365572       -4.4964430399
 H       -14.0340676664       -7.3297959778       -3.1733231748
 H       -15.6831983567      -10.7799213982       -1.4961132638
 H       -14.4808808131      -12.0249246473       -1.8533670897
 H       -15.6146991026      -11.4714614933       -3.0849601059
 H       -13.7902948447       -8.8929596514       -1.1766418991
 H       -12.4922920096       -8.5770409066       -2.3697650331
 H       -12.4692596692      -10.0712003326       -1.4429226521
 H        -9.2110929908      -12.6789203848       -9.1699217667
 H       -10.5925649624      -11.6761459620       -9.3026379150
 H       -10.7332669862      -13.4682792479       -9.5408387179
 H       -10.3600671396      -13.8569013844       -5.5863556869
 H        -9.5306791401      -14.4372549341       -6.9706265410
 H       -11.1985258712      -14.5046791152       -7.0567713473
 H        -7.2241817151       -6.5585232603       -4.6285777611
 H        -8.7154204690       -7.1705530539       -4.1659482230
 H        -8.4684725591       -5.4136823626       -4.4795946066
 H       -10.4426419194       -5.1436041577       -6.5115829980
 H       -10.7368377263       -6.5001467696       -5.5924699135
 H       -10.6570148747       -6.5395639455       -7.3317919279
 H        -3.3886474172       -7.5312179692      -11.4871407229
 H        -3.4368074718       -6.0259434848      -10.7920458608
 H        -4.6825392908       -6.4065339909      -12.0276808702
 H        -4.8398095659       -9.0000313025      -11.3120035487
 H        -6.4662586286       -8.4028411668      -11.9121834651
 H        -6.3096576817       -9.4174398666      -10.4402031512
 H         1.8947118873       -8.7988951157       -8.2716806320
 H         0.8944010535       -8.6309836942       -9.6895978557
 H         0.7665957629      -10.1156464151       -9.0986824677
 H        -0.9227016737       -9.4370393310       -5.8516671256
 H         0.8050890885       -8.9218090051       -5.9884135655
 H         0.2416061131      -10.3894166848       -6.6617574720
 H        -0.2458679704       -3.5839321687       -5.0910961441
 H        -1.4553803698       -2.3027758188       -4.8478748738
 H        -0.4162204182       -2.2552652600       -6.2285863901
 H        -3.5106654565       -4.1882560737       -4.7827699917
 H        -2.1538834993       -5.2290479700       -4.8983171162
 H        -3.4284559463       -5.2804277583       -6.1886673740
 H        -0.4540683703       -0.8633372486      -11.3874353076
 H        -0.2353670485        0.7206422579      -12.2423097388
 H        -1.7848908683        0.2009402813      -11.5744099250
 H         1.6417708821        0.9828074494      -10.5550173905
 H         1.2703566321        1.3361341785       -8.8180443371
 H         0.9071406072        2.4576663908      -10.2100012309
 H        -1.2947997748        6.8771120620       -8.9047368037
 H        -2.9695700654        7.0163986850       -9.4613225148
 H        -1.8576603604        8.4580958339       -9.3627807216
 H        -3.1183808798        7.8801944126      -11.9828135140
 H        -1.7216984126        7.7678652964      -13.1064958240
 H        -1.9930305607        9.1173997847      -11.9755854497
 H         2.3406928249        4.3593750196       -7.6380789814
 H         4.0834615640        3.9086827105       -7.4942839770
 H         3.2257227652        3.2527291817       -8.7986122527
 H         4.3247612201        6.9410966000       -7.6550918020
 H         5.4380069290        6.6952703107       -9.0311165378
 H         5.4430340000        5.6167625419       -7.6007567834
 H         4.5267079140        0.1062600884      -14.4909691212
 H         3.5202345509        0.2521256280      -15.8740200266
 H         2.8604604516        0.2950172435      -14.1772798487
 H         4.4897209656        3.8141588013      -15.9540975419
 H         5.1475274721        2.2963786590      -16.4143725444
 H         5.7673148758        2.9307212098      -15.0238924221
 H        -3.2365407841        6.0633166838      -16.7548301502
 H        -2.4032097563        5.8132371540      -15.2162936041
 H        -3.5404612815        4.6745638317      -15.7661928934
 H        -2.5430780276        2.9202292096      -17.3127294059
 H        -1.4098259473        2.9835633846      -18.6938670415
 H        -2.8532451141        3.8925820249      -18.7220623736
 H         0.1446536312       10.0954265186      -18.9387057729
 H         1.7380220707       10.5413805936      -18.6015840500
 H         0.3732092963       11.5004771466      -18.0210877753
 H         1.0873725205        9.7856894887      -14.7717266085
 H         1.3472695189       11.2560455256      -15.6112932141
 H         2.4889161147       10.0589062768      -16.0544075789
 Na       -0.0176461643        6.8497248637      -14.4787236562
 Na       -4.9893467312       -4.6525994838       -8.0766378562
