232

 C        -1.8691977596       10.5422908001      -16.8152958904
 C        -0.7843969857        9.5618477827      -16.2787819580
 O        -1.1586265099        8.7135475886      -15.5007497839
 C         0.7679874402        9.7068482579      -16.8960021809
 C         1.2716406922        8.2199456639      -16.9939155759
 O         1.6200002260        7.6791941762      -15.9618912046
 C         1.1745459499        7.4875093060      -18.3581971931
 C         0.6300794807        6.0750290535      -17.9990518407
 C        -0.8010544258        6.0948381677      -17.6465520475
 O        -1.5652247728        6.9784677826      -17.7654186994
 C        -1.5620368409        4.7484373919      -16.9984585550
 C        -0.3982443269        4.0287259687      -16.1652533305
 O         0.0457098601        4.6101807034      -15.2228759286
 C        -0.0695943682        2.5216221495      -16.3761068025
 C         0.9146061079        1.8618335136      -15.3176953862
 C         2.3221801925        2.4991434065      -15.6422181828
 O         2.4241327530        3.6204822100      -16.1411307656
 C         3.5616748072        1.9113917593      -14.8394610080
 C         3.1384155734        2.3645932857      -13.3492804182
 O         2.2909307749        1.7665481597      -12.6830471682
 C         3.7758830869        3.5989864200      -12.8047980776
 C         3.2082375102        4.1581710707      -11.4725246228
 C         4.2354906395        4.7780451465      -10.5258226522
 O         5.4045104351        4.9271120241      -10.8124299265
 C         3.6175614832        5.3577713089       -9.1186828528
 C         2.3632796342        6.1682946608       -9.5090178845
 O         1.1532746634        5.7974650752       -9.4437372671
 C         2.4823743713        7.5778402923      -10.0777214894
 C         1.0440866317        8.2585314988      -10.1947996912
 C         0.1724547669        7.4644156318      -11.1943782200
 O         0.7681948234        7.2406857998      -12.2544846160
 C        -1.3016454730        7.1395603792      -11.0263809226
 C        -1.5280752460        5.5210233972      -11.5834489454
 O        -1.7014939576        5.2773349672      -12.7217758926
 C        -1.4653406331        4.4844316648      -10.4630571216
 C        -1.3826504530        3.0382338115      -11.0533361748
 C        -1.5215963214        1.9934829105       -9.8978645400
 O        -2.3148795345        2.2288215092       -8.9702870274
 C        -0.4978740412        0.8831841792      -10.0394957856
 C        -0.7034864457       -0.2103661016       -9.0242005218
 O         0.2641048508       -0.8410476424       -8.5649571703
 C        -2.1446937980       -0.7289586842       -8.7522750052
 C        -2.3971669385       -0.8202791062       -7.1984540606
 C        -2.8743944545       -2.2886701988       -7.0427871975
 O        -4.0817621294       -2.5150013483       -7.3123323580
 C        -1.9034413019       -3.4793788024       -6.5705486670
 C        -1.5154323743       -4.4252358467       -7.7613117819
 O        -2.4219575776       -4.9192403266       -8.4012125958
 C        -0.0352709064       -4.6890241147       -8.1058783485
 C         0.2345609234       -6.0976713834       -8.5022217588
 C        -0.1974850384       -7.1031345542       -7.3211288815
 O        -0.3563099724       -6.7069934368       -6.1986537395
 C        -0.4161925531       -8.6533520621       -7.6702200154
 C        -1.7861920369       -8.8835560454       -8.3194503213
 O        -1.8491965783       -8.6962655857       -9.5114582739
 C        -2.9702365311       -9.3435902556       -7.5668650004
 C        -4.2774788557       -9.2024760563       -8.3793524829
 C        -4.6725007685       -7.8336781270       -8.7741117125
 O        -4.5752687971       -6.9053288182       -7.9755451216
 C        -5.3209552785       -7.4899123086      -10.2420426356
 C        -6.3249379719       -6.3166756217      -10.0479522300
 O        -6.0701088401       -5.1290442595      -10.1819932290
 C        -7.7960631943       -6.7026702037       -9.7443156106
 C        -8.4333914060       -5.6939227427       -8.8108807410
 C        -7.9124893971       -5.7940617068       -7.3368625794
 O        -6.9896926169       -5.1052544178       -6.9618866884
 C        -8.6786665307       -6.7171764381       -6.3146791002
 C        -8.5531270943       -8.3083624977       -6.5419697586
 O        -7.6026073652       -8.7205142771       -7.1145247608
 C        -9.7298401740       -9.1671158807       -5.8738937818
 C        -9.3892874523      -10.5883466951       -5.6306695598
 C        -9.1953197532      -11.4602504740       -6.9471163407
 O        -8.0551149807      -11.5675870499       -7.3557959658
 C       -10.4550863366      -12.2411473434       -7.3952082911
 C       -11.7571954064      -11.6176715118       -6.8508947521
 O       -11.9792656922      -10.4174902174       -7.1493899715
 C       -12.8273700983      -12.4646068116       -6.1844076262
 C       -13.7295220394      -11.8272574807       -5.0532651596
 C       -13.1244035001      -10.7916113230       -4.0726754926
 O       -11.9890129439      -10.3693606950       -4.1708847701
 C       -14.0974362615      -10.1783297754       -2.9453204170
 C       -15.1388189492       -9.2110647354       -3.7241359623
 O       -15.8770797157       -9.7476718117       -4.4812829003
 C       -15.0801752956       -7.6909234514       -3.7060973582
 C       -14.9329389775      -11.1138162562       -2.1264448499
 C       -13.1833683222       -9.3343359817       -1.8930656102
 C       -10.6111719104      -12.4157880923       -8.9616832630
 C       -10.0266186582      -13.6492718254       -6.7471125941
 C        -8.0473705464       -6.3196608038       -4.9129866407
 C       -10.0987166194       -6.2587521074       -6.2395456962
 C        -4.0680059262       -6.8996878764      -11.0079175670
 C        -5.8894513183       -8.7399667922      -10.8642392251
 C         0.6988978762       -9.0799040848       -8.5975762178
 C        -0.2986278216       -9.3854177826       -6.3131401701
 C        -0.6746575025       -2.9466870306       -5.7573771039
 C        -2.7652864823       -4.3828067860       -5.6704709510
 C        -0.6970177364        0.1840860233      -11.4901404658
 C         0.8960898373        1.4470512497       -9.9076956875
 C        -1.8795529516        7.4718022447       -9.6585974953
 C        -2.0080935178        8.1748427522      -12.0364658200
 C         3.4135364424        4.0380758205       -8.2198627777
 C         4.6335077055        6.2934187926       -8.5109477987
 C         3.7616657973        0.4186716974      -14.9820900852
 C         4.8413032415        2.5807659649      -15.4045254212
 C        -2.7691319364        5.0992605948      -16.1088647110
 C        -2.0512793511        3.7600632210      -18.2242482248
 C         0.8331206877       10.4435068608      -18.2333387564
 C         1.4105918393       10.5647255870      -15.7912394210
 H        -2.6317505817       10.6071733124      -16.0851291330
 H        -2.2456284013       10.1859142263      -17.7967782634
 H        -1.5302553130       11.5558163208      -16.9591363247
 H         2.1388899932        7.2257697817      -18.7919173766
 H         0.5421357404        8.1589984802      -19.0149695245
 H         1.1955017376        5.6581050272      -17.2553695892
 H         0.6156681455        5.5301640551      -18.9237167684
 H         0.4110744172        2.3994146932      -17.3626020931
 H        -0.9637769305        1.8836093979      -16.4522383868
 H         0.8258617601        0.7527271048      -15.3600327311
 H         0.5884390531        2.0574580240      -14.2977330894
 H         3.9459546154        4.3410997961      -13.5378096702
 H         4.7891454207        3.3425308746      -12.6063137127
 H         2.6528237229        3.4051979053      -10.9265145869
 H         2.4986384573        4.9462701877      -11.6066778445
 H         2.7596578903        7.3254892456      -11.1188172074
 H         3.1369647673        8.2572599091       -9.5932816455
 H         1.3165033245        9.2242120226      -10.6831811568
 H         0.5590452342        8.4712097377       -9.2657810893
 H        -2.4062218365        4.5783096179       -9.9678672848
 H        -0.7102642242        4.7634083768       -9.7175926088
 H        -0.4763702438        2.8854606319      -11.6823953904
 H        -2.1657879536        2.8471315063      -11.6945112066
 H        -2.1150085030       -1.7350141576       -9.2812950653
 H        -2.9114421446       -0.1919747099       -9.2230026966
 H        -3.0621104925       -0.1204306085       -6.6567371607
 H        -1.4948977656       -0.6296496589       -6.7069263313
 H         0.5009663479       -4.4596049751       -7.2453803828
 H         0.1751020254       -4.1617584346       -9.0391451141
 H         1.3293076768       -6.2053573775       -8.7209296214
 H        -0.3561615854       -6.4302016253       -9.3070267811
 H        -3.2813641186       -8.7454001948       -6.6674737193
 H        -2.8729081973      -10.4173209816       -7.3926358560
 H        -5.1193476741       -9.4957534029       -7.7510557794
 H        -4.2270683558       -9.7267756777       -9.3084015986
 H        -7.8788186500       -7.7262508077       -9.4008555956
 H        -8.3183718111       -6.5412576704      -10.6890183963
 H        -9.5300492238       -5.8653764701       -8.7665500883
 H        -8.3493213598       -4.6984823556       -9.2615749833
 H       -10.6743810687       -9.3043180063       -6.4941499833
 H       -10.0149245929       -8.6282387465       -4.9274746683
 H       -10.1931145189      -11.0876570727       -5.1080051023
 H        -8.4706976006      -10.6902628191       -5.0569314705
 H       -12.3041686275      -13.2966186095       -5.7866677447
 H       -13.4033371881      -12.9638017107       -6.9952091993
 H       -14.2194866588      -12.7056269362       -4.5125512188
 H       -14.6172390581      -11.2401696269       -5.3725644970
 H       -15.7470227980       -7.2960985101       -2.9038175498
 H       -15.4481759053       -7.2313808744       -4.6101854136
 H       -14.0623876347       -7.3622206467       -3.3494062255
 H       -15.5866742888      -10.5270671651       -1.5029832747
 H       -14.2916569438      -11.7478728632       -1.5917006097
 H       -15.6440159684      -11.7658079841       -2.6811185908
 H       -13.7159021178       -8.7507021287       -1.1909320402
 H       -12.5670407739       -8.6883398320       -2.4502874734
 H       -12.4043092905       -9.9556245110       -1.4350595959
 H        -9.5486367601      -12.3592973352       -9.4075014700
 H       -11.3293012860      -11.8329313041       -9.4963277836
 H       -10.8579796625      -13.4404187260       -9.1708305503
 H       -10.0809382407      -13.6068695794       -5.6762171728
 H        -8.9291819318      -13.8717781563       -6.9169809826
 H       -10.5372978808      -14.5869265798       -6.9729525805
 H        -7.0818428001       -6.7960506835       -4.6876583303
 H        -8.7819168041       -6.7290364735       -4.2136776852
 H        -7.9745648632       -5.2991849038       -4.7169058424
 H       -10.2694801449       -5.1725750761       -5.9803773493
 H       -10.6958895270       -6.7830278372       -5.4917331154
 H       -10.6731277642       -6.3798301448       -7.2089579316
 H        -3.3337771648       -7.6684272692      -11.0842142268
 H        -3.5366393612       -6.1559726718      -10.4804192548
 H        -4.2502353090       -6.4866202764      -11.9961055605
 H        -5.2044770382       -9.4525930969      -11.4007392746
 H        -6.6511297197       -8.4031816266      -11.4859549399
 H        -6.4647680444       -9.1478473769      -10.0163395432
 H         1.5970393332       -9.0073483406       -8.0506896701
 H         0.7634805944       -8.4331414238       -9.5016995457
 H         0.5181999817      -10.0456588623       -8.9957613123
 H        -1.1384061065       -9.0509667654       -5.6982656912
 H         0.6431362112       -9.1284228463       -5.8224776375
 H        -0.4036462524      -10.4235932327       -6.3349113711
 H        -0.2023499722       -3.7877633816       -5.2354903355
 H        -1.1233034385       -2.3970835838       -4.9481144056
 H         0.1070563541       -2.4241215387       -6.3549767386
 H        -2.7747648151       -3.9066606611       -4.7364300491
 H        -2.2903958876       -5.2845702665       -5.3928131153
 H        -3.8087983959       -4.4685540774       -5.9116236235
 H         0.3271703529        0.0279705130      -11.8282619322
 H        -1.1728962937        0.8898603674      -12.1227124889
 H        -1.3015085319       -0.7867388690      -11.4343607037
 H         1.4861568473        0.6222788726       -9.4244245842
 H         0.7991567441        2.2724407370       -9.1971139105
 H         1.3680153520        1.7170178821      -10.8753744956
 H        -1.5374848976        6.8999779323       -8.8107144442
 H        -2.9286843858        7.3483644334       -9.6338969063
 H        -1.5126453390        8.5078983773       -9.4899606898
 H        -3.0382679433        8.4804715493      -11.7355580248
 H        -1.9113426374        7.9298406734      -13.0752046599
 H        -1.4520841394        9.0493460300      -11.9219553011
 H         2.3237678533        4.0475921472       -7.9859971578
 H         4.0535986692        4.0784349309       -7.3284174129
 H         3.5827273077        3.0559947921       -8.6810868617
 H         4.2187157715        6.5348613565       -7.5024344810
 H         4.6996568422        7.1837275059       -9.1373505656
 H         5.6425807062        5.9391938142       -8.5024885490
 H         4.7181022601        0.1690083560      -14.6250009911
 H         3.7837588366       -0.0175871519      -16.0149999386
 H         3.1201884018       -0.2059500058      -14.3857412493
 H         4.9128505707        3.6649550779      -15.3629872306
 H         5.0853077245        2.2673723713      -16.4164262272
 H         5.6727337532        1.9910408316      -14.8910127026
 H        -3.7247315752        5.3011097108      -16.6181852906
 H        -2.6192293541        5.8641775068      -15.3572945129
 H        -2.8816980024        4.1549452709      -15.4560369256
 H        -2.2813349810        2.7255371249      -18.0122161008
 H        -1.3210495064        3.7467030413      -19.0078707675
 H        -2.9987156608        4.0724817111      -18.6534584316
 H         0.1024705188       10.3508262266      -19.0169338414
 H         1.6857095429       10.0529614919      -18.7697857369
 H         0.9054528741       11.5102246131      -18.1181276949
 H         1.3030269186       10.0033531926      -14.8686141625
 H         0.7558591534       11.4833350832      -15.6834058841
 H         2.3631283736       10.9441921595      -16.1204360516
 Na       -0.0395938657        6.7610907051      -14.3585923313
 Na       -4.8519401093       -4.4856471163       -8.0402494813
