232

 C        -1.7984870479       10.4862511404      -16.8821536016
 C        -0.7535299992        9.4896753497      -16.3506516692
 O        -0.9717938242        8.7109059743      -15.4340908302
 C         0.6560868614        9.7467922225      -16.8284886398
 C         1.3034059751        8.2772704945      -16.9023429257
 O         1.7011379089        7.7240245906      -15.8893250424
 C         1.3013224672        7.5283353751      -18.2304858985
 C         0.7111647786        6.1201220642      -17.9040073215
 C        -0.9697113088        6.1355362885      -17.5266913917
 O        -1.6338876924        7.1296323942      -17.7676271753
 C        -1.4569292308        4.7477653118      -16.9823367649
 C        -0.4677325214        3.9040954362      -16.1597737750
 O        -0.0019496142        4.5013471545      -15.1647897012
 C        -0.1311864508        2.5244368637      -16.5653841776
 C         0.9006206823        2.0104155196      -15.5132699916
 C         2.3025284359        2.5766061529      -15.5608350037
 O         2.5428760536        3.5734542416      -16.1743380656
 C         3.5598179819        1.8489062866      -14.7142141353
 C         3.1885403513        2.2664855375      -13.2943436216
 O         2.2992415060        1.6535954158      -12.6904897995
 C         3.8416568966        3.5497237893      -12.8629107256
 C         3.2273223382        3.9514739937      -11.5796557174
 C         4.1554156512        4.8182902660      -10.6921386970
 O         5.3090442572        4.8779123162      -10.9178291323
 C         3.5788001983        5.4529533250       -9.2337354949
 C         2.3043669727        6.2015096198       -9.6013434106
 O         1.2084412193        5.6365035849       -9.5433259540
 C         2.4782591857        7.7591937032      -10.0995708589
 C         1.0302892143        8.3761820073      -10.2807140677
 C         0.3017111919        7.5190366225      -11.3021665075
 O         0.7848766994        7.3672868045      -12.4166998052
 C        -1.2517951704        7.1610286783      -11.0554061714
 C        -1.5442121012        5.6946307448      -11.5383045779
 O        -1.6809100223        5.4216177200      -12.7143361847
 C        -1.5398321757        4.6182250257      -10.4603642330
 C        -1.4035610110        3.2605938120      -11.1228320957
 C        -1.4237024493        2.1240126453      -10.0377094031
 O        -2.1372024738        2.2261813131       -9.0781427801
 C        -0.4436962491        0.9195847605      -10.1501295531
 C        -0.7486702828       -0.2807876568       -9.0850469630
 O         0.1341131176       -0.7963143724       -8.4378392145
 C        -2.1822546296       -0.6466736310       -8.7045965299
 C        -2.3198185774       -0.8304340952       -7.2594696802
 C        -2.7912679671       -2.2586613477       -6.9434911596
 O        -4.0249717681       -2.4901483244       -7.1203106862
 C        -1.9281126175       -3.4045288890       -6.4969894819
 C        -1.6182212799       -4.3560564086       -7.8076274539
 O        -2.5011084013       -4.9994606957       -8.4326635212
 C        -0.0857625623       -4.7482722079       -8.1511604764
 C         0.0377093047       -6.2557594613       -8.5176034492
 C        -0.3096803133       -7.1333777899       -7.2993827385
 O        -0.3901403136       -6.6664530138       -6.1847382511
 C        -0.4197003085       -8.6419412436       -7.5705022102
 C        -1.8170091100       -8.8771711747       -8.3246509323
 O        -1.7756498872       -8.8177947464       -9.5570770804
 C        -3.1015460249       -9.3360883657       -7.5116348987
 C        -4.4139934250       -9.2818667746       -8.3831836825
 C        -4.7735953650       -7.7604358877       -8.6807661455
 O        -4.4787474721       -6.8740816092       -7.9130199244
 C        -5.4093578054       -7.4426140205      -10.0904831552
 C        -6.3813374164       -6.2790068034      -10.1394511365
 O        -6.0727304432       -5.1360866284      -10.2305171353
 C        -7.8470561783       -6.7380141686       -9.7890445655
 C        -8.5611714632       -5.7250883350       -8.8176511504
 C        -7.9277681918       -5.8307217153       -7.3326339679
 O        -6.9407514457       -5.0813611596       -7.1428114114
 C        -8.6646232944       -6.6305092506       -6.2208656638
 C        -8.5378007653       -8.1525315895       -6.5304411437
 O        -7.6688484532       -8.6976383418       -7.2011983983
 C        -9.6480375510       -9.0296487494       -5.9249362183
 C        -9.2262291506      -10.4702242896       -5.6411941534
 C        -9.1092663436      -11.3860099312       -6.9178986433
 O        -8.0810279579      -11.5855833904       -7.5370098327
 C       -10.3519882481      -12.2235692292       -7.2545147422
 C       -11.7254292643      -11.5494560019       -6.7184020247
 O       -12.1830218887      -10.5101117366       -7.1990634903
 C       -12.5905066977      -12.4938232421       -5.7514101262
 C       -13.6969432993      -11.8712415127       -4.9710798056
 C       -13.1555269740      -10.8023480002       -4.0033881442
 O       -11.9689189229      -10.5450683033       -4.1360254997
 C       -14.0736804175      -10.1608015419       -3.0039886450
 C       -15.1466451551       -9.2841327950       -3.8038806783
 O       -16.0302970500       -9.8004034816       -4.4302518283
 C       -15.0538584227       -7.7360684032       -3.7020295567
 C       -14.8447360893      -11.2580403041       -2.2526535967
 C       -13.1660578415       -9.2827037418       -2.0282236471
 C       -10.6289533911      -12.2212058949       -8.8135559095
 C       -10.1275074311      -13.6134211137       -6.7484991714
 C        -7.9223946690       -6.3884700665       -4.8832896829
 C       -10.1839437482       -6.3308309039       -6.1223706142
 C        -4.0186596537       -7.0609410423      -10.9602543406
 C        -5.8901238711       -8.7544131458      -10.8372656191
 C         0.6553240459       -9.1453032336       -8.6009873364
 C        -0.5055156807       -9.4475133615       -6.2222082018
 C        -0.6063696785       -2.9009703351       -5.8605834512
 C        -2.7070044764       -4.2630752615       -5.5680226268
 C        -0.6117275459        0.1298753958      -11.5216184418
 C         0.9932188670        1.4977860366       -9.8952443659
 C        -1.7925759947        7.3207913174       -9.6603333389
 C        -1.9913242629        8.0666764302      -12.0489633790
 C         3.3480007854        4.1947462621       -8.3062298269
 C         4.6404593251        6.2912739144       -8.4628508900
 C         3.5897118120        0.2981451252      -14.9461914294
 C         4.8451469198        2.5271117039      -15.1798002430
 C        -2.6626399439        4.9553255138      -16.0521450698
 C        -1.8392158490        3.9634920462      -18.2639559893
 C         0.7219223732       10.3065924517      -18.2678155762
 C         1.4155712680       10.5655978513      -15.7599935691
 H        -2.7999132149       10.3120292192      -16.5255814694
 H        -1.7326917101       10.5380587068      -17.9623680678
 H        -1.5222933294       11.4577433541      -16.5362717323
 H         2.3292405819        7.3792154803      -18.4662121718
 H         0.7931566225        8.1153738766      -19.0590957534
 H         1.2253163325        5.7296269640      -17.0556230058
 H         0.7723933447        5.5495707831      -18.8250012227
 H         0.2692036971        2.5649426519      -17.6108706606
 H        -0.9598402268        1.7743977432      -16.6026398862
 H         0.8704258393        0.9175542109      -15.4281012642
 H         0.4975895297        2.2451531588      -14.5320179683
 H         3.7094367762        4.3119994258      -13.6005504471
 H         4.9619162172        3.5496040252      -12.8002905142
 H         3.0009320196        3.0870206093      -10.9167904686
 H         2.2537136978        4.3790568750      -11.7410179199
 H         3.1139086417        7.6993135082      -10.9367357599
 H         2.8613259088        8.3638110233       -9.2873105624
 H         1.1031329338        9.4089472866      -10.5630466738
 H         0.5524798266        8.3725175483       -9.2276164320
 H        -2.3917814488        4.7002434401       -9.8646116814
 H        -0.6558252097        4.7272377959       -9.8020248027
 H        -0.4859648803        3.3062694004      -11.7512705585
 H        -2.1850279902        2.9692614822      -11.7911378390
 H        -2.3990484270       -1.4803023839       -9.3768163621
 H        -2.9409081634        0.1888954778       -9.0379277241
 H        -3.0139307797       -0.2279499561       -6.7651615436
 H        -1.3159435529       -0.4054934377       -6.7803648225
 H         0.5949218018       -4.5792789894       -7.2952084316
 H         0.1589699613       -4.2778909644       -9.0825912089
 H         1.0519729784       -6.5123932933       -8.7218818881
 H        -0.5928143360       -6.6879286669       -9.3098218096
 H        -3.3766302569       -8.7542110941       -6.7125071911
 H        -2.9766253788      -10.3486226199       -7.2510744587
 H        -5.3380716429       -9.7927011471       -7.8791647892
 H        -4.1831054111       -9.6613946744       -9.3331357102
 H        -7.6426089867       -7.7683783682       -9.2835516256
 H        -8.4671977502       -6.8695419962      -10.6439556988
 H        -9.6979062191       -5.7631639981       -8.8471380708
 H        -8.3406956432       -4.6673294322       -9.2580766821
 H       -10.5665346312       -9.1072561845       -6.6471367902
 H        -9.9904966784       -8.5326194344       -4.9826965902
 H        -9.9535802739      -11.0285259401       -4.9979465088
 H        -8.2441942644      -10.4458397698       -5.1404711655
 H       -11.9081707563      -13.0416762813       -5.1273893396
 H       -13.0086046813      -13.2417087347       -6.4009241134
 H       -14.3450396833      -12.6817158945       -4.4875110822
 H       -14.4071215377      -11.3398067606       -5.6826388798
 H       -15.5720179823       -7.5907264972       -2.7613690956
 H       -15.6187878578       -7.1129060112       -4.4559724000
 H       -14.0732205088       -7.3564908564       -3.4481350290
 H       -15.5293600993      -10.7107447546       -1.6425377157
 H       -14.1618636016      -11.9428711847       -1.6818574354
 H       -15.5286425675      -11.9197016865       -2.8548055962
 H       -13.6291705572       -8.5707995072       -1.4310825762
 H       -12.3791446621       -8.8160626278       -2.6126454431
 H       -12.5238424428      -10.0095560010       -1.4759694977
 H        -9.7541557296      -12.2857950026       -9.3829053042
 H       -11.1870935865      -11.3088825273       -9.0243132635
 H       -11.2870853915      -13.0493499500       -9.2096956884
 H        -9.9276573636      -13.6848467169       -5.7371611556
 H        -9.2393778829      -14.0160205477       -7.2304936557
 H       -10.9357765267      -14.3471415545       -6.8334633780
 H        -6.9471191961       -6.9572190172       -4.8591378374
 H        -8.5801646676       -6.7842434074       -4.0806554715
 H        -7.7516594193       -5.3182629009       -4.5906712653
 H       -10.4173717891       -5.2575344918       -6.0823861809
 H       -10.7035697643       -6.7372198865       -5.2639882637
 H       -10.7984303480       -6.6863672158       -7.0397382711
 H        -3.3020737227       -7.8593631284      -10.8883387458
 H        -3.4795542730       -6.1585594666      -10.8190773244
 H        -4.3316539975       -6.9983904070      -12.0405403740
 H        -5.0462609034       -9.4262931033      -11.0370138355
 H        -6.3563093085       -8.4420383895      -11.8089057315
 H        -6.6094882784       -9.1694835259      -10.2641939544
 H         1.6843110315       -8.9425787121       -8.3246499484
 H         0.4243266840       -8.6736812618       -9.5633437989
 H         0.5167716415      -10.2585030219       -8.7448091235
 H        -1.1301710189       -8.9409746004       -5.4710046177
 H         0.4987955328       -9.6280479931       -5.7874821986
 H        -0.9962582440      -10.4031966497       -6.3719169939
 H        -0.1268773271       -3.8228329532       -5.5252356990
 H        -0.9442526946       -2.4733677052       -4.8819466796
 H         0.1109477991       -2.3758788474       -6.4800338271
 H        -2.6700776303       -3.9150846944       -4.5385674666
 H        -2.2301957950       -5.1960448994       -5.4654127888
 H        -3.8060845509       -4.2873527280       -5.7873606850
 H         0.3569156719        0.2124492857      -12.0010438481
 H        -1.4009619550        0.6203952399      -12.1353638468
 H        -0.8850689123       -0.9201914552      -11.3373563376
 H         1.3963023088        1.0005916343       -9.0145598140
 H         0.8483362969        2.5690317314       -9.6601812042
 H         1.6440532132        1.3579793658      -10.7400134947
 H        -1.3073135379        6.6542781813       -9.0547352154
 H        -2.8001544250        6.9507178439       -9.5957123164
 H        -1.5804764816        8.3280794575       -9.2328434567
 H        -3.0513727989        8.1671289901      -11.8081864617
 H        -1.8296099367        7.7507517740      -13.0829982112
 H        -1.5239790844        9.0687878743      -11.9656028263
 H         2.3032944358        4.0749981801       -8.1782955508
 H         3.9002200701        4.3980201090       -7.3913490602
 H         3.6692690541        3.1311848722       -8.6486682978
 H         4.3170252646        6.3555866622       -7.3588425167
 H         4.8090847698        7.2247734505       -8.9037646904
 H         5.6898259037        5.8082431609       -8.6358422795
 H         4.4852090259       -0.0480742436      -14.4670499739
 H         3.7676394123       -0.0406691316      -15.9716491828
 H         2.8045372808       -0.3291402305      -14.5808735483
 H         4.9682562706        3.6457427891      -15.0594331337
 H         5.0765967040        2.3463928237      -16.1948544247
 H         5.6381242707        1.8564267248      -14.7150824740
 H        -3.5596481798        5.2955578712      -16.4509603853
 H        -2.3308750848        5.6822008847      -15.2903935613
 H        -2.8356738629        4.0544114244      -15.3735602953
 H        -2.4135035356        3.0067271004      -18.2083959091
 H        -1.0107970192        3.7986610059      -18.8929496008
 H        -2.5565832695        4.5712350646      -18.7713582639
 H         0.0605376364        9.9613951806      -19.0952412021
 H         1.6528469186       10.0539446144      -18.7416132790
 H         0.5432629202       11.3672961553      -18.2887221400
 H         1.6667238329        9.8618230650      -15.0035145856
 H         0.8556572349       11.4392733553      -15.3596980295
 H         2.2843560696       10.9657611432      -16.3341080653
 Na       -0.1688268000        6.7692759500      -14.3376285612
 Na       -4.8559357272       -4.6221668675       -8.1154604128
