232

 C        -1.9481166320       10.2693749473      -16.7868075139
 C        -0.7756831868        9.5042323057      -16.2565971228
 O        -1.0071651961        8.7629736467      -15.3127807731
 C         0.6695625170        9.7158310934      -16.7869221913
 C         1.3642867872        8.2420157296      -16.7216215352
 O         1.6716397904        7.8220684343      -15.6364903545
 C         1.4763174326        7.2970676896      -18.0104313045
 C         0.7002791353        6.0706924277      -17.7985116676
 C        -0.7371279211        6.1924257218      -17.3898522959
 O        -1.4290367433        7.1574332979      -17.5619458858
 C        -1.4063465563        4.7788179545      -17.0234254181
 C        -0.4351792511        4.0186380618      -16.0924492651
 O        -0.0193274868        4.5221721145      -15.0716134597
 C         0.0868511724        2.5988775761      -16.6591044338
 C         1.0902871522        1.8139062646      -15.7949311706
 C         2.4625499845        2.4977531831      -15.7654272676
 O         2.6698030834        3.5629633987      -16.3572134659
 C         3.5720019871        1.7979395235      -14.7667887401
 C         3.0682420179        2.2062858502      -13.2868223039
 O         2.4106977971        1.3777847881      -12.6561385458
 C         3.6713331059        3.4758453233      -12.7370235534
 C         3.2327912714        3.8123089220      -11.3293387942
 C         4.1694349360        4.7826864050      -10.6239296907
 O         5.2640940377        5.0782877986      -11.0858884539
 C         3.6109804691        5.4222339039       -9.2640095376
 C         2.3138871307        6.3104790151       -9.7423636063
 O         1.2558807328        5.7484418300       -9.9438575518
 C         2.4861913314        7.9047580764       -9.9029633506
 C         1.0716324531        8.4786620348      -10.2848362990
 C         0.2673376404        7.7179194936      -11.3781331409
 O         0.7818065940        7.5093600506      -12.4487671351
 C        -1.2420062533        7.2371202651      -11.1493091502
 C        -1.4164659699        5.7980141371      -11.6968028692
 O        -1.4553967471        5.5660286016      -12.8894492741
 C        -1.5634743332        4.6214877808      -10.7443661716
 C        -1.2742008979        3.2050979673      -11.3007777305
 C        -1.2919999268        2.1941042123      -10.1178197294
 O        -1.9885478674        2.4046906538       -9.1185312300
 C        -0.4001078306        0.9366469490      -10.2325044918
 C        -0.7930534665       -0.0656630017       -9.0788753683
 O         0.1300282595       -0.5978091925       -8.4578700180
 C        -2.2677190439       -0.4516108654       -8.7308862739
 C        -2.4272828296       -0.9260245470       -7.1421880316
 C        -2.9122589310       -2.3308699071       -6.9547211041
 O        -4.0731078864       -2.6737688321       -7.1240958462
 C        -1.8891245364       -3.3949575279       -6.4629245963
 C        -1.6464557886       -4.4103820230       -7.7495564509
 O        -2.6369525618       -4.6550755509       -8.4010883049
 C        -0.2970986552       -4.9013877319       -8.2116205481
 C        -0.3483234956       -6.3348971197       -8.5837538063
 C        -0.5620996831       -7.2649039454       -7.3292530622
 O        -0.5761681333       -6.7733619297       -6.2304944975
 C        -0.5706615524       -8.7866378540       -7.5041147385
 C        -1.9453078866       -9.0228330168       -8.2610160418
 O        -1.9777710734       -8.9692945074       -9.4616416449
 C        -3.1600814372       -9.3140022043       -7.4104546665
 C        -4.4458107293       -9.3860711191       -8.2505072339
 C        -4.8117749560       -7.8837974061       -8.6989939906
 O        -4.6393541030       -6.9474258524       -7.9349265905
 C        -5.3266100014       -7.5389930954      -10.1421204895
 C        -6.4479902229       -6.3726402922       -9.9643272542
 O        -6.0383446246       -5.2048252533      -10.1249420181
 C        -7.9787398747       -6.7449544087       -9.7563831566
 C        -8.6311792637       -5.8098566984       -8.7699440799
 C        -7.9494879165       -5.8166568141       -7.4529675344
 O        -6.9201579397       -5.2471928458       -7.2005332206
 C        -8.6956162207       -6.4991666372       -6.2909266739
 C        -8.5937254096       -8.1112291294       -6.6639017838
 O        -7.6488834056       -8.3186068291       -7.3836153517
 C        -9.4753414019       -9.0787056805       -5.8826886558
 C        -8.7895519606      -10.4650330692       -5.6346073191
 C        -9.0587584394      -11.3935592915       -6.8846849747
 O        -8.2100385393      -11.4007297619       -7.7242477352
 C       -10.3727932616      -12.1664508656       -7.2833996028
 C       -11.7247344782      -11.7519174877       -6.5159305472
 O       -12.4209830464      -10.8108721552       -6.8843121984
 C       -12.3429580885      -12.7187649328       -5.4944985093
 C       -13.5467567055      -11.9143500901       -4.9407048626
 C       -13.0776745708      -10.8129448694       -3.9945319922
 O       -11.8997051263      -10.5539583303       -3.9169649518
 C       -14.1270481151      -10.0734758030       -2.9503546525
 C       -15.2368519745       -9.3084100712       -3.7909162281
 O       -16.1164792459       -9.9208668515       -4.3558691587
 C       -15.1403033319       -7.8097906585       -3.7557451828
 C       -14.7847045748      -11.3122075076       -2.2083757234
 C       -13.2757884949       -9.2498222360       -2.0101120448
 C       -10.5528718537      -11.9176903919       -8.8152852108
 C       -10.0583802408      -13.7307735785       -6.9395143820
 C        -7.8218008608       -6.3961880130       -4.9963840006
 C       -10.1046697120       -5.9035464259       -6.0042968239
 C        -4.1517198811       -7.0107906247      -10.9353836004
 C        -6.0296525202       -8.7445199816      -10.8189712150
 C         0.6677307174       -9.3610701841       -8.2616200851
 C        -0.5931203777       -9.4839666412       -6.1191200554
 C        -0.4961232695       -2.8608859421       -5.9912845920
 C        -2.4586510605       -4.2985311169       -5.2829899189
 C        -0.3581784179        0.2779239215      -11.6248131128
 C         1.0475773866        1.3503772795       -9.8965624462
 C        -1.5159835743        7.5100366010       -9.6312475117
 C        -2.2293738949        8.2638639384      -11.8697435440
 C         3.0800706173        4.2451420723       -8.3672569257
 C         4.8212464361        6.3198429541       -8.8118211525
 C         3.2692936297        0.2763341449      -14.8646876503
 C         4.9574026529        2.1237933817      -15.2446224911
 C        -2.7903467212        4.9324423251      -16.2142351842
 C        -1.8051836469        4.2114892777      -18.4062355548
 C         0.7685232395       10.3734662498      -18.1846215180
 C         1.5459254941       10.6610935323      -15.8486922791
 H        -2.8572267120        9.6821526286      -16.6767704298
 H        -1.8510786834       10.6533157668      -17.8207363677
 H        -2.0870639261       11.1517981555      -16.1138961667
 H         2.5720365598        7.1804305892      -18.2196638901
 H         1.0574725057        7.7820220911      -18.8798223648
 H         1.0254480724        5.4471802003      -16.9363642020
 H         0.5753889620        5.5070690285      -18.7561589265
 H         0.4916214965        2.5436965964      -17.6518193831
 H        -0.7618473716        1.9342542589      -16.7296350554
 H         1.0786427459        0.7463354357      -15.9959094963
 H         0.8087831700        1.7933859201      -14.7242101958
 H         3.7338681300        4.3642195522      -13.4492785691
 H         4.7515943279        3.2736168720      -12.6503234331
 H         3.2519679951        2.9366435842      -10.6643815526
 H         2.1613029403        4.1600260974      -11.2609454555
 H         3.3432409785        8.0150003607      -10.6601765249
 H         2.7422171333        8.3392580177       -8.9235781805
 H         1.2393909553        9.5309980688      -10.6831839001
 H         0.5715798588        8.6807445994       -9.3845674062
 H        -2.6670727454        4.5664738111      -10.4226803230
 H        -0.9635254746        4.7537497693       -9.8328855828
 H        -0.3360149710        3.0929373578      -11.8783672503
 H        -2.1067874996        2.8795316022      -11.9879491257
 H        -2.5235840056       -1.2464172841       -9.4875800607
 H        -2.9022757483        0.3049893252       -8.9350986730
 H        -3.2132565178       -0.2631196291       -6.6021511666
 H        -1.6034640676       -0.6811824265       -6.6280578125
 H         0.4850268251       -4.7089294666       -7.4812539204
 H        -0.1672092301       -4.3329834033       -9.1969751530
 H         0.5888482554       -6.7699560393       -9.0339039246
 H        -1.1528793668       -6.6101818147       -9.2469971265
 H        -3.3211081027       -8.4592224173       -6.6245903769
 H        -3.1689172912      -10.2897856526       -6.7983119216
 H        -5.2224559017       -9.7793169858       -7.6739423723
 H        -4.2323491764       -9.9864302400       -9.1880037828
 H        -7.9483400440       -7.7067229249       -9.3851218558
 H        -8.6184556905       -6.7158173967      -10.7033904983
 H        -9.6666412268       -6.0934887299       -8.6626129150
 H        -8.7132019011       -4.8298058923       -9.1177135156
 H       -10.3368336420       -9.1286381649       -6.4534344588
 H        -9.7457261123       -8.6236841631       -4.9536169566
 H        -9.0972327345      -10.8758536702       -4.6598157213
 H        -7.7081620049      -10.2578343361       -5.5354184426
 H       -11.5432602838      -12.9800918005       -4.7509827423
 H       -12.6108555670      -13.6601344754       -6.0667909906
 H       -14.3095912879      -12.4109608365       -4.4056457158
 H       -14.0262737836      -11.4523162599       -5.7707316947
 H       -15.0495099545       -7.3109614957       -2.7813666697
 H       -15.9460020648       -7.4565886874       -4.3154325891
 H       -14.2305865773       -7.4945961666       -4.2961965498
 H       -15.1438566184      -11.1230254482       -1.1528593224
 H       -14.0310742022      -12.0813585146       -2.2104224493
 H       -15.6386003119      -11.7448273169       -2.7554790092
 H       -14.0081664259       -8.7138565557       -1.3297538457
 H       -12.7248206957       -8.4802166791       -2.5841098581
 H       -12.5216295495       -9.8239265900       -1.4687946916
 H        -9.8731874801      -12.6931448536       -9.3034005006
 H       -10.3899102862      -10.9118300322       -9.1523231978
 H       -11.4929677621      -12.1788854741       -9.1629405405
 H        -9.9666984183      -13.9396928578       -5.8550147861
 H        -9.1078210851      -14.0743819566       -7.3852158507
 H       -10.8657665450      -14.4056021032       -7.0755126770
 H        -6.7720307799       -6.5263579433       -5.2881692386
 H        -8.0983208471       -7.0073548864       -4.1124441811
 H        -7.9374302920       -5.3809377364       -4.6543039837
 H       -10.1460077665       -4.8581240775       -6.2570107353
 H       -10.3818836102       -5.9397879251       -4.9658806034
 H       -10.9055305691       -6.4214295181       -6.4274051263
 H        -3.1361948487       -7.4356436983      -10.6911555491
 H        -4.1076756836       -5.9020303914      -10.7043607918
 H        -4.1903362833       -6.9935212521      -12.0155798103
 H        -5.2656137531       -9.5186081966      -11.0232627004
 H        -6.4648839206       -8.4689996782      -11.7318378828
 H        -6.8115900818       -9.1345038259      -10.0775266242
 H         1.6226025415       -8.9163686889       -7.8759928350
 H         0.6154672592       -9.1976318875       -9.3883136236
 H         0.7737054295      -10.4016511501       -7.9554561912
 H        -1.1389236895       -8.9054603956       -5.3514247176
 H         0.4104944870       -9.6245763017       -5.7095966900
 H        -1.1075298501      -10.4521430613       -6.2170237249
 H         0.0345175819       -3.7436674276       -5.6387790395
 H        -0.4562821289       -2.1056180749       -5.2656872617
 H         0.0412102327       -2.6662209571       -6.9167150595
 H        -2.6920909579       -3.8892867325       -4.2756388701
 H        -1.6109755448       -5.0403194819       -5.1028003478
 H        -3.4081792787       -4.7723105168       -5.5308244665
 H         0.1478492861        0.9258487070      -12.3282780661
 H        -1.3323123175        0.0121884687      -11.9310724872
 H         0.2210046151       -0.6268315084      -11.4551580165
 H         1.1292853105        1.6305747380       -8.8570954595
 H         1.3448922195        2.1269916133      -10.5558265660
 H         1.6625838728        0.4948101361      -10.1679220139
 H        -0.8202534653        7.0385405536       -8.8697489639
 H        -2.4700284015        7.0181220418       -9.4189439758
 H        -1.5811602593        8.5751047953       -9.4847850024
 H        -3.2069446150        7.7251550329      -11.8159743697
 H        -1.9749438224        8.3480493038      -12.9319529203
 H        -2.2931577281        9.2572562161      -11.4430454959
 H         2.4104020516        3.6085937420       -8.9635679299
 H         2.7998319825        4.5098657580       -7.3638996573
 H         3.8622899882        3.5797042103       -8.2469730802
 H         4.5379412585        6.9470131900       -8.0150797842
 H         5.2157686451        6.8579497217       -9.7149641121
 H         5.6461490160        5.7685273310       -8.5824144961
 H         4.0012035561       -0.3676061026      -14.3641569907
 H         3.3717059893       -0.0283326637      -15.9257588188
 H         2.2607940569       -0.1255315911      -14.7098548011
 H         4.9664146755        3.0901367716      -15.6672773341
 H         5.0969259824        1.4971868507      -16.1471059771
 H         5.7920424778        1.9773280824      -14.5743099327
 H        -3.2459815071        5.7978711242      -16.7416327436
 H        -2.7026402369        5.2392210821      -15.1955019797
 H        -3.4512735068        4.0900515800      -16.3476956854
 H        -2.5452283060        3.4476070304      -18.4320956574
 H        -0.8686174640        3.7311868685      -18.7819750650
 H        -2.1856247524        4.9451511523      -19.1361009406
 H         0.3231001865        9.8690442756      -19.0046104660
 H         1.7719101835       10.4902070726      -18.6124693880
 H         0.2903922091       11.3621648193      -18.1609880905
 H         1.8097664568       10.0597340393      -14.9283710167
 H         0.8961372775       11.5087775037      -15.6765272502
 H         2.4152328394       11.0453221712      -16.3489056725
 Na       -0.3194917692        6.6847258930      -14.5172180473
 Na       -4.8841532965       -4.6569564359       -8.2436570496
