232

 C        -1.9219109689       10.2738229837      -16.8010919557
 C        -0.7820913089        9.5662263153      -16.1430502490
 O        -1.0667405800        8.9901000428      -15.0919450976
 C         0.6397798675        9.6629621499      -16.7134388232
 C         1.3354429972        8.2373018166      -16.5875213413
 O         1.5174507050        7.8007070772      -15.4542613494
 C         1.5253213832        7.4413431712      -17.9486466608
 C         0.9904025939        6.0376741255      -17.7572149430
 C        -0.5052597932        6.1143197509      -17.3902572257
 O        -1.0013782057        7.1997538443      -17.1655443682
 C        -1.4033654114        4.7797128612      -17.2018487158
 C        -0.4347433502        3.8895800572      -16.2909201348
 O        -0.0085155523        4.3438776219      -15.1854240346
 C         0.0117574550        2.6015097769      -16.9180291426
 C         0.9857870562        1.7665326080      -16.0967942403
 C         2.5048008439        2.3430046258      -15.8538312439
 O         2.8802215104        3.3525706536      -16.3423378386
 C         3.5025041687        1.4930862074      -14.8561197925
 C         3.1471083143        2.1020411913      -13.4567573832
 O         2.4885462195        1.4018826314      -12.7366535778
 C         3.7046697858        3.4526799348      -12.9442491969
 C         3.4115386316        3.5556116261      -11.3599609775
 C         4.1158020571        4.8291073266      -10.7128796555
 O         5.0490507664        5.2383651793      -11.3384465208
 C         3.5695004752        5.5680215704       -9.3499957204
 C         2.3253773443        6.4087825892       -9.9368889536
 O         1.3150002724        5.8520813874      -10.3336246733
 C         2.4898913591        7.9331618474      -10.0667455176
 C         1.2199079884        8.5966946144      -10.4586227571
 C         0.3503881481        7.7576627225      -11.3857771444
 O         0.7217814572        7.6766099647      -12.5488833531
 C        -1.2069224584        7.3300724791      -11.0758411690
 C        -1.3012400301        5.9114221748      -11.6025083239
 O        -1.3402087189        5.7989415070      -12.8385971805
 C        -1.5486780240        4.7152582895      -10.7428633768
 C        -1.0440682532        3.3371165859      -11.2761498066
 C        -1.2195002215        2.3537085889      -10.1166634576
 O        -1.9140328710        2.6137947295       -9.1777447491
 C        -0.4240168938        0.9569735182      -10.1499677692
 C        -0.8189772307       -0.1034887654       -8.9300366969
 O        -0.0087796151       -0.7208557841       -8.3140165024
 C        -2.2709684769       -0.4561221949       -8.6751089350
 C        -2.5546924986       -0.8639687532       -7.2673972966
 C        -2.8469265220       -2.3244862310       -7.0720504728
 O        -3.9779099317       -2.6717531107       -7.2238491655
 C        -1.8020633230       -3.3652734908       -6.6079421867
 C        -1.7069800544       -4.4065789157       -7.7836227103
 O        -2.5788982589       -4.6059849961       -8.5851980296
 C        -0.2552733654       -5.0887659691       -8.1692288513
 C        -0.5457106907       -6.5573830524       -8.6034352057
 C        -0.6868684115       -7.3898498136       -7.2964330824
 O        -0.8403110428       -6.7937301601       -6.2388424573
 C        -0.7062596004       -8.9519867862       -7.3027278826
 C        -2.0655127319       -9.2452689316       -8.0944254152
 O        -2.0396602465       -9.1276268986       -9.3087039588
 C        -3.3526590567       -9.4867093935       -7.3828311330
 C        -4.6063429350       -9.3795093373       -8.3142412332
 C        -4.8466734893       -7.8741450619       -8.6175182855
 O        -4.7013050748       -6.9607519999       -7.8261426324
 C        -5.4084036789       -7.5969775912      -10.1297062784
 C        -6.5806332418       -6.4192005241      -10.0445661607
 O        -6.1788200320       -5.3120916241       -9.9677184838
 C        -8.1324336148       -6.7459178771       -9.8844473928
 C        -8.6477920924       -5.7138130543       -8.8459614956
 C        -7.8958742599       -5.7843550797       -7.4768198553
 O        -6.9185841489       -5.1166112773       -7.2230398876
 C        -8.5282355186       -6.4652469273       -6.2120168700
 C        -8.5793464613       -8.0180421776       -6.5121145920
 O        -7.8392452664       -8.4115745643       -7.4261511114
 C        -9.5300916465       -8.9973652977       -5.7063714192
 C        -9.0186410576      -10.4934867426       -5.7501894950
 C        -9.0000758201      -11.2772292898       -7.0933966566
 O        -8.0671841545      -11.3088952695       -7.8824584247
 C       -10.2403354111      -12.2793888985       -7.3866648144
 C       -11.5493997757      -11.7309257297       -6.5366692023
 O       -12.0269976764      -10.6916336688       -6.8551864570
 C       -12.3279487556      -12.7081756650       -5.4871412817
 C       -13.3798834517      -12.1397508324       -4.5577936515
 C       -13.0165398951      -10.8026554363       -3.7208938574
 O       -11.9146619182      -10.3261860296       -3.8391121093
 C       -14.1854120572      -10.0907936252       -2.7461195062
 C       -15.1668943562       -9.4438503839       -3.6947430484
 O       -16.0140269897      -10.1516441444       -4.2690758769
 C       -15.1958562756       -7.9404132613       -3.9684027613
 C       -14.9373733746      -11.2149998367       -1.9517928307
 C       -13.4504475578       -9.1466789271       -1.7984654030
 C       -10.6802320879      -12.0006326612       -8.8690403120
 C        -9.7125530862      -13.7521306292       -7.2497081928
 C        -7.7439727574       -6.2152844739       -4.8680469929
 C       -10.0232251505       -5.9368776917       -6.0092112072
 C        -4.2962458459       -7.0670399074      -10.9777798949
 C        -6.0187945840       -8.9104584400      -10.8584701761
 C         0.4776925326       -9.4682932444       -8.1908454271
 C        -0.5634163246       -9.4604299937       -5.8604410403
 C        -0.4634513891       -2.7238934044       -6.1647903470
 C        -2.3393229046       -4.2305515166       -5.4005993521
 C        -0.5779899221        0.2159208865      -11.5427957234
 C         1.0174008971        1.4386336092       -9.8145674710
 C        -1.5920703800        7.1997587434       -9.5544108336
 C        -2.0955537681        8.2754951721      -11.8675698958
 C         3.0833732059        4.5991909080       -8.2156139303
 C         4.6637585585        6.5140641583       -8.7431736157
 C         3.2487760883        0.0112951304      -14.9604029361
 C         4.9392365586        1.9193098478      -15.2311523478
 C        -2.7537315571        5.2847683206      -16.4376243394
 C        -1.7509707370        4.0281576968      -18.5179379893
 C         0.6853110972       10.2418450479      -18.1167276478
 C         1.3639472647       10.6321102490      -15.6462474154
 H        -2.7804839985        9.5700065931      -16.7305558711
 H        -1.7743734758       10.5633567208      -17.8157153392
 H        -2.2101522046       11.1509400159      -16.2285653848
 H         2.6067229547        7.3787584783      -18.1373009414
 H         1.1816906913        8.0101498046      -18.8232332824
 H         1.4549614177        5.6953468554      -16.8526357733
 H         1.0486119194        5.4053956183      -18.5991052518
 H         0.4974671350        2.7359298793      -17.8889860232
 H        -0.8917247512        2.0273330956      -17.1622991243
 H         1.0881307471        0.7042481580      -16.3658119408
 H         0.5047483356        1.6355273305      -15.1217551434
 H         3.4995419166        4.3014672841      -13.5117892899
 H         4.7949053162        3.3999142696      -12.9448171605
 H         3.8753972157        2.6835751123      -10.9097101358
 H         2.3895078332        3.5169116961      -11.0906552009
 H         3.2222037571        8.1603864333      -10.7947183940
 H         2.8594086324        8.1458539116       -9.0605199678
 H         1.3536875614        9.5684367495      -10.8190530875
 H         0.6222966745        8.8216415238       -9.4989579646
 H        -2.5907579941        4.5507535824      -10.6649308109
 H        -1.1533664892        4.8569657655       -9.7519419649
 H        -0.0679411706        3.2085808005      -11.6916938369
 H        -1.7574829614        3.1348879358      -12.0581648575
 H        -2.5859851456       -1.3414239004       -9.1811865052
 H        -2.9708018172        0.3505154451       -9.1685978256
 H        -3.4078804219       -0.3507715754       -6.9075566965
 H        -1.7290016619       -0.5542283005       -6.5081976326
 H         0.4467114608       -5.0646524662       -7.2948293802
 H         0.1772595998       -4.5498074395       -8.9809893274
 H         0.1455623767       -7.1287876934       -9.1435849748
 H        -1.5065001498       -6.6614415651       -9.1533041744
 H        -3.4528474070       -8.8272996401       -6.5622968165
 H        -3.4534508258      -10.4679097513       -6.9450239011
 H        -5.5715760289       -9.6262263746       -7.7871356803
 H        -4.4567621867       -9.9815611444       -9.1823713152
 H        -8.5056263057       -7.7991336646       -9.6499316100
 H        -8.4973087976       -6.5084336326      -10.8442770409
 H        -9.7303452451       -5.7397358929       -8.7560091512
 H        -8.4765707473       -4.6423304809       -9.1443903861
 H       -10.6275799438       -8.8855711639       -6.0234031163
 H        -9.4852376391       -8.7830756808       -4.6203717595
 H        -9.6387706883      -10.9472499776       -4.9789534004
 H        -8.0490675510      -10.4997999426       -5.2771012669
 H       -11.6378568173      -13.2928990319       -4.8823700009
 H       -12.8674986624      -13.3779058557       -6.1665488761
 H       -13.5485983264      -12.9101522425       -3.7523152158
 H       -14.4003770120      -11.9875731621       -5.0292269993
 H       -14.8785785390       -7.4432163429       -3.0554051031
 H       -16.2458057996       -7.6525305645       -4.3015970506
 H       -14.5221663132       -7.5813301275       -4.7429968862
 H       -15.4253382925      -10.6653878437       -1.1983931520
 H       -14.3384350044      -11.9794141016       -1.4367990239
 H       -15.6340557260      -11.7314333577       -2.5645848257
 H       -14.0095485721       -8.8685505286       -0.9286866601
 H       -13.1205968464       -8.2343717551       -2.3045753964
 H       -12.5732431759       -9.7253365968       -1.5194874838
 H       -10.0621358693      -12.2578517990       -9.6536860039
 H       -11.0055185460      -10.9364557237       -8.8966988493
 H       -11.6596242124      -12.5749453573       -9.0311563194
 H        -9.9043793852      -14.4060073890       -6.4068996937
 H        -8.6683634143      -13.7715731536       -7.4865774108
 H       -10.3081893549      -14.3547146134       -7.9916877540
 H        -6.7659806952       -6.5536531305       -5.0187738984
 H        -8.2167102751       -6.7555498064       -4.1167617605
 H        -7.7896261051       -5.1652875032       -4.5327102662
 H        -9.8592299007       -4.8798051944       -5.8007315641
 H       -10.5531092128       -6.3231219722       -5.1099595501
 H       -10.8105233575       -6.1242105056       -6.7743293741
 H        -3.6782307609       -7.8778774716      -11.2527181461
 H        -3.7289736817       -6.2919585083      -10.5444773738
 H        -4.5876114255       -6.6393020044      -11.9253792480
 H        -5.2818922525       -9.4148359298      -11.4093763746
 H        -6.6972321981       -8.4328703587      -11.6378369637
 H        -6.5125060403       -9.5937184483      -10.2105832576
 H         1.4216753074       -9.2901477164       -7.7533500826
 H         0.4136810215       -8.9870052224       -9.0874419992
 H         0.4863246137      -10.5473683756       -8.1907186474
 H        -1.4552636792       -9.4904319150       -5.2956589469
 H         0.0284399751       -8.7581602403       -5.3127080737
 H        -0.0909660179      -10.4371158451       -5.8563631644
 H         0.2846759968       -3.4943386077       -6.0411091012
 H        -0.6845780893       -2.2397950851       -5.1776094252
 H        -0.1403647237       -1.9716559815       -6.8592236738
 H        -2.6943255426       -3.6741644199       -4.5771761641
 H        -1.6192721008       -4.9247542139       -5.0978159283
 H        -3.2500398020       -4.6911163490       -5.7236354681
 H        -0.9738020670        0.9587786458      -12.2313314177
 H        -1.2954254979       -0.6345065509      -11.4184501421
 H         0.3507826361       -0.1597492338      -11.8846578168
 H         0.9245483119        2.4677203339       -9.4292319428
 H         1.7250111737        1.2887030467      -10.6825123621
 H         1.4122078702        0.7661068283       -9.0472435375
 H        -1.0604788356        6.3662252861       -9.1148770031
 H        -2.6930115463        7.0253387858       -9.4792213653
 H        -1.3133354542        8.0740542069       -8.9469843937
 H        -3.0702657791        7.9187640550      -11.8290845782
 H        -1.7927598492        8.2608710162      -12.9054024463
 H        -1.9936901504        9.2827115561      -11.4381686979
 H         2.6515068158        3.6933098651       -8.5834967028
 H         2.3697719460        5.1599858809       -7.6118633598
 H         3.8857811934        4.2665833697       -7.5024308323
 H         4.3217435613        7.0415291152       -7.8608677774
 H         5.1897284738        7.1633019579       -9.4810638191
 H         5.4345650259        5.7742093382       -8.3976047990
 H         4.1115885979       -0.6040440608      -14.7080725392
 H         2.9264112770       -0.2802834153      -15.9385474078
 H         2.3713285051       -0.3615670004      -14.4621198960
 H         4.8759191738        3.0073460488      -15.5250292423
 H         5.2718503369        1.4356288243      -16.1557911663
 H         5.6649881194        1.8629475128      -14.4101838307
 H        -3.1972118566        6.2683167128      -16.6694373633
 H        -2.5664677646        5.2890226305      -15.3112179491
 H        -3.4763393943        4.5151268981      -16.6995906296
 H        -1.9922478716        2.9502200654      -18.3483150105
 H        -1.0568399027        4.0403934078      -19.3277642524
 H        -2.6999904640        4.4118311245      -18.8520046355
 H        -0.0796713112        9.7035804370      -18.7253031325
 H         1.5986488846       10.1461673420      -18.7098442625
 H         0.5275313298       11.3016517683      -18.2603385274
 H         1.0962361768       10.2726453540      -14.6760044369
 H         1.0962022826       11.6386163772      -15.9197135414
 H         2.4684177397       10.4544784139      -15.6593799884
 Na       -0.1007583739        6.8581528205      -14.5292992843
 Na       -4.9989098180       -4.5737380827       -8.1553231284
