232

 C        -2.0042802203       10.3671503441      -16.8620914969
 C        -0.9382570337        9.6111241856      -16.0787905106
 O        -1.0584773347        9.1663465163      -14.9607825539
 C         0.6036802607        9.6579160316      -16.6526699210
 C         1.2442327582        8.2364694613      -16.6000551399
 O         1.6648477024        7.7969582609      -15.5546461956
 C         1.5677146987        7.4061064119      -17.8008122700
 C         1.0928639181        5.9896250251      -17.7420058912
 C        -0.3762297461        6.1500988731      -17.4979314918
 O        -0.8517588502        7.2049629452      -17.0299565769
 C        -1.3219604404        4.7616154731      -17.2887024912
 C        -0.3629038749        3.8457818196      -16.4246951096
 O        -0.1189138124        4.2698880631      -15.2999798043
 C         0.2185550103        2.5081411907      -16.9374364543
 C         1.1322413448        1.6589291789      -16.0354030749
 C         2.5469180135        2.1638526343      -15.9001198635
 O         2.8214812634        3.2596809213      -16.3638815570
 C         3.4261143152        1.4890727804      -14.9485300164
 C         3.1001471564        2.0189613489      -13.4348849954
 O         2.3863926607        1.3337493163      -12.7306893187
 C         3.7172736514        3.3568232108      -12.8431172839
 C         3.5061190836        3.5625448708      -11.3704145534
 C         4.1835202400        4.8438493584      -10.7734735254
 O         5.0183431109        5.4920944800      -11.3895928322
 C         3.5537493702        5.5844117972       -9.4733309780
 C         2.3733725945        6.4010068927      -10.0275323066
 O         1.4279505115        5.8217209556      -10.4284721783
 C         2.5038192936        7.9625342431      -10.1748474042
 C         1.1216823890        8.5912421279      -10.3853922327
 C         0.2808609677        7.8613731005      -11.4178735471
 O         0.7290635125        7.7428426520      -12.5182699220
 C        -1.0505261864        7.3039566511      -11.0401324427
 C        -1.2901665602        5.8804668576      -11.6642754300
 O        -1.3160837852        5.7695215269      -12.8900314194
 C        -1.5261688646        4.6841115939      -10.7396381672
 C        -0.9665813558        3.3019173671      -11.1799355892
 C        -1.2710406768        2.2755121882      -10.0567276433
 O        -1.9579832825        2.5912716214       -9.0917695819
 C        -0.4332281306        0.9877541775      -10.0148456961
 C        -0.8755635779       -0.0073209799       -9.0163395384
 O         0.0147354283       -0.5907379798       -8.4263111967
 C        -2.3660818244       -0.3458485587       -8.8186385793
 C        -2.6185209309       -0.7395044734       -7.2421332263
 C        -2.9510814652       -2.3177339267       -7.0436658129
 O        -4.0936841994       -2.5607750717       -7.2988726345
 C        -1.7939630365       -3.3522352826       -6.7365008480
 C        -1.5146354294       -4.3799079627       -7.9347549146
 O        -2.4637602092       -4.6504698275       -8.5946568587
 C        -0.2391404226       -5.1606387556       -8.2087582899
 C        -0.5673574279       -6.5993981088       -8.4887759125
 C        -0.8328004102       -7.3941304844       -7.2042898921
 O        -0.9700648075       -6.8088989516       -6.1491508384
 C        -0.8396561468       -8.9274303808       -7.2615795329
 C        -2.1550568841       -9.2973019843       -8.0699758990
 O        -2.0706116765       -9.2610448668       -9.2630147071
 C        -3.4602433059       -9.5591771135       -7.3115121372
 C        -4.6285885767       -9.3604525744       -8.2838894889
 C        -4.9988525213       -7.8841412698       -8.6926554127
 O        -4.6627607799       -6.9722448480       -7.9185545730
 C        -5.5312979182       -7.6282974751      -10.1678253866
 C        -6.5866206311       -6.5273257121       -9.9552663063
 O        -6.1706196301       -5.3385722855      -10.0495396993
 C        -8.0770849080       -6.7322535994       -9.7360897106
 C        -8.6062763203       -5.7287014825       -8.7245853533
 C        -7.9745694946       -5.6678001870       -7.3856114933
 O        -6.9782084012       -5.0068081904       -7.2145900639
 C        -8.6009738134       -6.5428216367       -6.1905488182
 C        -8.6233308617       -8.0741772994       -6.5105913217
 O        -7.9363781741       -8.5356510407       -7.3999284283
 C        -9.4963541173       -8.9627665723       -5.7245183355
 C        -9.1539877708      -10.4980821063       -5.7783824314
 C        -9.0799662217      -11.1931174053       -7.1475730715
 O        -8.0946230159      -11.2167599368       -7.8168398860
 C       -10.3209570488      -12.2172622943       -7.4574152247
 C       -11.4783179130      -11.6896465278       -6.5495640144
 O       -11.8620011038      -10.5579099234       -6.6763203489
 C       -12.0969853232      -12.6827701608       -5.4818176687
 C       -13.1674954727      -12.1308948237       -4.5212907659
 C       -12.9946260886      -10.8039230799       -3.6292254963
 O       -11.9631709115      -10.2023815232       -3.7917300704
 C       -14.0900374822      -10.1603879880       -2.6941264791
 C       -15.2045073435       -9.5782547465       -3.6781184174
 O       -15.9377422751      -10.3351258621       -4.2851263003
 C       -15.1829217590       -8.0313636863       -4.0214746799
 C       -14.9449085491      -11.1867166546       -1.8281324561
 C       -13.4541841765       -9.1003658065       -1.7573939399
 C       -10.7487031124      -12.0874488579       -8.9524975585
 C        -9.7285048058      -13.6483593052       -7.3159567739
 C        -7.7427885899       -6.1723515582       -4.9743396718
 C       -10.0301285594       -6.0647800145       -6.0064753936
 C        -4.2935476735       -7.1001608483      -10.9476906878
 C        -6.1157623481       -8.8569948053      -10.7554966841
 C         0.3216091208       -9.5933141648       -8.1295303737
 C        -0.6094104813       -9.5245751543       -5.8548199565
 C        -0.3945354386       -2.7837695315       -6.2671904616
 C        -2.4149197869       -4.2090945371       -5.5445718643
 C        -0.6587008520        0.1472924390      -11.3246129154
 C         1.0478020912        1.4079572020       -9.8145899918
 C        -1.4699483897        7.3524326872       -9.4772569539
 C        -1.9870167722        8.3124144908      -11.8206902752
 C         2.9085656529        4.6865905925       -8.3935339641
 C         4.6250020731        6.5931573523       -8.8947377845
 C         3.2080441556       -0.0102583091      -15.0404348587
 C         4.9547591969        1.8863266205      -15.3411875096
 C        -2.4880737744        5.3052759134      -16.5235648036
 C        -1.7896626412        4.2049121127      -18.5928029516
 C         0.6645461111       10.2574859793      -18.0206147482
 C         1.3181672349       10.6063937355      -15.5773030719
 H        -2.9839881859        9.9161120825      -16.9400648802
 H        -1.6190175609       10.5140284194      -17.8314187979
 H        -2.1331244525       11.3529218005      -16.4096551891
 H         2.6363190563        7.3961511793      -18.1187036160
 H         1.1472810492        7.8345034197      -18.6240617252
 H         1.4692729711        5.3483699425      -16.8710419349
 H         1.1105740711        5.5447929135      -18.7148071875
 H         0.7213080816        2.5223349183      -17.9301520195
 H        -0.7213040446        1.9392176075      -17.1473048080
 H         1.2499560886        0.6266655984      -16.3122797104
 H         0.6172748347        1.5529746360      -15.0679110002
 H         3.0349045543        4.1052250017      -13.3265639913
 H         4.7508960998        3.6330462661      -13.0943504030
 H         3.8228940002        2.7042149711      -10.8081159371
 H         2.4208610659        3.6820098294      -11.1623615757
 H         3.0147028109        8.2166135829      -11.0846966450
 H         3.0644119742        8.2807893922       -9.3233784294
 H         1.2436509695        9.6497724142      -10.7174604574
 H         0.6489256291        8.7735162969       -9.4286151338
 H        -2.5890825622        4.5431661643      -10.4600646005
 H        -0.9823077070        4.8927784688       -9.8853299546
 H         0.0666270573        3.3359821907      -11.2634062625
 H        -1.3964483922        3.0546001095      -12.2180485288
 H        -2.7970372252       -1.2590971884       -9.3667078937
 H        -2.9168365827        0.4767623730       -9.2439469549
 H        -3.4242430365       -0.0041073286       -6.7244713560
 H        -1.7231012916       -0.5390265914       -6.7299305064
 H         0.4583827274       -5.0179970315       -7.3455342013
 H         0.3180716492       -4.8405794603       -9.1052580166
 H         0.2671893869       -7.1703115565       -8.8657828055
 H        -1.3635198217       -6.7810006271       -9.2336251330
 H        -3.5457518952       -9.1266587493       -6.3708878723
 H        -3.5382614100      -10.5545298154       -7.0364250905
 H        -5.5808580870       -9.7916392591       -7.9856892838
 H        -4.1845893662       -9.9159861275       -9.2230324428
 H        -8.4064099559       -7.7023409285       -9.3854664010
 H        -8.5411559005       -6.5770674575      -10.7700916423
 H        -9.7101062128       -6.0547638478       -8.6178931594
 H        -8.7314440307       -4.6243081605       -9.0097949002
 H       -10.5550004428       -8.8431025225       -6.1241150616
 H        -9.5327996891       -8.6691806126       -4.6183829393
 H        -9.7066083923      -10.8813136414       -4.9160441993
 H        -8.0983316994      -10.6088288315       -5.4134763246
 H       -11.2955356124      -13.1656370679       -4.8914324676
 H       -12.6395296066      -13.3855617053       -6.0430358817
 H       -13.2940392142      -12.9761748608       -3.7997227815
 H       -14.1962476796      -12.0192627455       -5.0156581076
 H       -14.7755083063       -7.4279639190       -3.1740787483
 H       -16.0495871583       -7.6197971708       -4.5169171865
 H       -14.3666823118       -7.9884233023       -4.7555263176
 H       -15.8251477762      -10.6370658539       -1.3841350984
 H       -14.5024267459      -11.7392073468       -0.9648670356
 H       -15.2360854677      -11.8803393452       -2.5576220252
 H       -14.2546031762       -8.6593317496       -1.1053188788
 H       -12.8868989493       -8.3164523205       -2.2239243101
 H       -12.8970493647       -9.6949371165       -1.1262545540
 H        -9.8376242868      -11.9339120807       -9.6051830421
 H       -11.4406088771      -11.2503130474       -9.1310203705
 H       -11.1924512728      -12.9915272216       -9.3143592250
 H        -9.7941000392      -14.0034752021       -6.2457650635
 H        -8.7237252773      -13.6854305569       -7.6046925927
 H       -10.3077411880      -14.4372076118       -7.7615710512
 H        -6.7811433979       -6.6511128866       -5.1248384392
 H        -8.2498996462       -6.4572800560       -4.0326320568
 H        -7.6735001898       -5.0659755377       -4.9444322690
 H       -10.0483612800       -5.0710951657       -5.4873446809
 H       -10.6728558840       -6.7678995773       -5.3594108014
 H       -10.6133408466       -6.0882291030       -6.9035135947
 H        -3.6886358458       -7.8523601850      -11.4231821990
 H        -3.7175428617       -6.4331681520      -10.3122034548
 H        -4.5501338029       -6.4800410693      -11.7243909074
 H        -5.3127699764       -9.4987547758      -10.9348645699
 H        -6.6053135706       -8.6126265492      -11.6593907318
 H        -6.7097148026       -9.4054031695       -9.9612023187
 H         1.2922229387       -9.4368402994       -7.6820614510
 H         0.2920811975       -9.1785881725       -9.1072867604
 H         0.2147998572      -10.6320111875       -7.9901428272
 H        -1.4512032228       -9.8248397937       -5.2676141795
 H        -0.1636216582       -8.8047110391       -5.2195000914
 H         0.0815279319      -10.3794498012       -5.9933686257
 H         0.2584978459       -3.6731956765       -6.1073540688
 H        -0.5735330438       -2.3429017523       -5.2759669170
 H         0.0363417552       -2.0058511786       -6.9306167092
 H        -2.5997850802       -3.5439640951       -4.7107080344
 H        -1.7526937886       -5.0467673637       -5.2460959289
 H        -3.3742260772       -4.5564815812       -5.7798552469
 H        -1.2130876018        0.7883678123      -12.0521467408
 H        -1.3114610379       -0.7089982813      -11.0280180225
 H         0.2474829920       -0.2445199102      -11.7379860328
 H         1.0554862241        2.4948010237       -9.7614706457
 H         1.6248558203        0.9860553162      -10.6254816189
 H         1.4820510297        0.9514783332       -8.9033903318
 H        -0.6379128250        7.0488632951       -8.7480338840
 H        -2.4031859693        6.8144328381       -9.3192625984
 H        -1.6783372160        8.3457454588       -9.2908705396
 H        -3.0141230532        8.1168007921      -11.6084740767
 H        -1.8365062507        8.2231167981      -12.8968823583
 H        -1.6588582401        9.2933924212      -11.4330362126
 H         2.1130798335        3.9415915065       -8.7684384743
 H         2.3962031503        5.4375110238       -7.7376511010
 H         3.5836952863        4.1381633380       -7.7925269992
 H         4.2923918167        7.0279891272       -7.9160067685
 H         4.7664980968        7.4490820481       -9.7257899105
 H         5.6165045412        6.1455431078       -8.7641186256
 H         4.0172664624       -0.5215689871      -14.5340801183
 H         2.9650516904       -0.4578331893      -15.9368786502
 H         2.3081251350       -0.2739746010      -14.4946696617
 H         5.2330004834        2.9561063521      -15.2984980805
 H         5.1946699546        1.5378628958      -16.4206524490
 H         5.5750559284        1.4395567713      -14.6087972727
 H        -2.9732177686        6.2298810960      -16.9841046772
 H        -2.1443763874        5.6096029705      -15.5371678940
 H        -3.2210009995        4.5635767532      -16.5284713064
 H        -2.0229872221        3.1843152725      -18.4599919641
 H        -1.0952015828        4.2042933364      -19.4590958914
 H        -2.7207905300        4.6937375383      -18.8963897424
 H         0.0200327767        9.6720217114      -18.6851468760
 H         1.6423561756       10.3999553709      -18.5315537444
 H         0.3712281672       11.3163420057      -18.1456866592
 H         1.1136866413       10.2677168912      -14.5205548016
 H         1.1225143499       11.5884746813      -15.8678684262
 H         2.3566716529       10.3266650091      -15.6519555366
 Na       -0.0728293442        6.8200383409      -14.4356997126
 Na       -4.9265584403       -4.5934129589       -8.1083081636
