232

 C        -1.8106586507       10.3265485874      -16.6966987262
 C        -0.7541341832        9.6546007210      -15.9774909004
 O        -0.9866146366        8.9228987592      -15.0400953019
 C         0.6873231171        9.7987843587      -16.5061038548
 C         1.3047248447        8.2571580149      -16.6077478043
 O         1.5872271416        7.7319109261      -15.5342408808
 C         1.7203050231        7.6584643200      -17.9840211270
 C         1.2004977382        6.2432778263      -17.9779535073
 C        -0.1611567715        6.1983396890      -17.3348510401
 O        -0.6604401749        7.2656629882      -16.9316643922
 C        -0.9497214657        4.9051499779      -17.4145035133
 C        -0.1053332281        3.7886382371      -16.5215016847
 O         0.0246681729        4.0779641386      -15.3132191725
 C         0.2438733979        2.3852334076      -17.0129525992
 C         0.9947307269        1.5467945437      -15.9935783951
 C         2.4366108934        2.1873283341      -15.9524138551
 O         2.8508772478        3.2484468363      -16.4052636455
 C         3.4146100577        1.4154928078      -14.9080895234
 C         3.1150428688        2.0453792867      -13.4998323046
 O         2.3438870640        1.4946915738      -12.7459889010
 C         3.8918143299        3.2592879190      -13.0227893137
 C         3.5707954534        3.5327119871      -11.5118355584
 C         4.2117324789        4.8847916832      -11.1829889815
 O         4.9407991392        5.5308456007      -11.9098707699
 C         3.6468393666        5.6399726266       -9.8728006789
 C         2.5685534968        6.6210395475      -10.2900670422
 O         1.4855061191        6.1545587404      -10.5628072078
 C         2.6328329988        8.2196705792      -10.4445692116
 C         1.1924728618        8.7700548702      -10.4776011938
 C         0.2958019991        8.0248586880      -11.5071632904
 O         0.6380955827        7.9504310069      -12.6769489413
 C        -1.1705894097        7.4290473018      -11.0036318712
 C        -1.2519318170        5.9673907693      -11.4298887192
 O        -1.2485236292        5.7049107702      -12.6397020917
 C        -1.4051370411        4.8323304967      -10.4562410320
 C        -1.0415199425        3.4429799366      -11.0820159465
 C        -1.2298831939        2.4018457977       -9.9845845605
 O        -2.0644007214        2.4996994686       -9.0983990469
 C        -0.4328853942        1.0550121203      -10.0888982944
 C        -0.8819826064       -0.0256336842       -8.9176708039
 O        -0.0242145810       -0.4995679604       -8.2126254095
 C        -2.3897042131       -0.1360031558       -8.5388566733
 C        -2.6721262046       -0.8521976428       -7.1120067478
 C        -3.0336212868       -2.2871874504       -7.2890245955
 O        -4.0958570207       -2.5632122115       -7.7689274907
 C        -1.9363016743       -3.3922665549       -6.8392995858
 C        -1.7429004238       -4.5167988312       -8.0339185658
 O        -2.5239393086       -4.6597675296       -8.9035123891
 C        -0.3597422869       -5.2542677993       -8.0457255109
 C        -0.3600512902       -6.7731915767       -8.2395769977
 C        -0.9754747629       -7.5145459722       -7.0368868565
 O        -1.2480478146       -6.9599297931       -5.9819362872
 C        -1.1531529844       -9.0869298238       -7.1943504132
 C        -2.4644978753       -9.4562593264       -8.0037514542
 O        -2.4068442560       -9.5244753346       -9.2030209659
 C        -3.6952818938       -9.5337755001       -7.2275026678
 C        -4.9401425485       -9.4225914555       -8.1039878714
 C        -4.9821087918       -8.0164037085       -8.6574383615
 O        -4.5222814140       -7.0923995291       -7.9265890647
 C        -5.5678354185       -7.7324735629      -10.0329060733
 C        -6.5499558793       -6.3734560170       -9.8333728642
 O        -6.1162332170       -5.2669312036       -9.9326386094
 C        -8.1016502375       -6.6269724397       -9.7526787485
 C        -8.7654128440       -5.6369066838       -8.7451304246
 C        -8.1313932490       -5.6101590907       -7.2854526337
 O        -7.1275596076       -4.9703300955       -7.0860855371
 C        -8.8247855652       -6.5243161334       -6.1029674592
 C        -8.5875742054       -8.0016475575       -6.4808493711
 O        -7.6512113517       -8.4267506974       -7.1594485971
 C        -9.4749109837       -9.0590369168       -5.6856578186
 C        -8.7751182144      -10.4841621274       -5.7076224341
 C        -9.0361171300      -11.1146306584       -7.1437290484
 O        -8.3118510292      -10.9631112851       -8.0666317055
 C       -10.3437796528      -11.9456401541       -7.1967091777
 C       -11.5254271123      -11.4608480822       -6.3058457622
 O       -12.2110175525      -10.5503998545       -6.6109088497
 C       -11.7282313447      -12.3780387103       -5.0917531777
 C       -13.0426054660      -11.9597543480       -4.4188689116
 C       -12.7576283776      -10.7071236457       -3.5213218971
 O       -11.6962680603      -10.1151714940       -3.5864184291
 C       -14.0036059552      -10.2223183842       -2.7478113741
 C       -15.0541308104       -9.8731070928       -3.8036570659
 O       -15.6942984068      -10.7768194076       -4.3326223436
 C       -15.0082494585       -8.4874943040       -4.3105612611
 C       -14.4302232797      -11.5451253738       -1.9265780551
 C       -13.6294514401       -9.0962487059       -1.7692442773
 C       -10.8494487275      -11.8118252337       -8.6443094995
 C        -9.9652394743      -13.4474329972       -7.0241151464
 C        -7.9049872432       -6.4759454052       -4.8536782727
 C       -10.2390922157       -6.0495706229       -5.8446191638
 C        -4.3701139106       -7.3624618772      -11.0395798329
 C        -6.3592975467       -8.8404172350      -10.8147359340
 C         0.1681332655       -9.6585048042       -7.8610143524
 C        -1.1226649730       -9.7265954073       -5.7965673884
 C        -0.5454394504       -2.8912339798       -6.3698677296
 C        -2.6451418660       -4.2465993668       -5.6597399528
 C        -0.7600477118        0.4309968256      -11.5246144858
 C         1.0826488829        1.2507476322       -9.9327678429
 C        -1.5856449938        7.5975985411       -9.4430809006
 C        -2.2544110742        8.2505897260      -11.9520565847
 C         3.0831169744        4.5033464351       -8.8896439023
 C         4.7687869854        6.3909774629       -9.0660602766
 C         3.2448367260       -0.1364404093      -14.8342448069
 C         4.8778531141        1.9072732123      -15.2612320598
 C        -2.3354731275        4.9485338654      -16.6842956222
 C        -1.1864141765        4.4013470149      -18.8168163675
 C         0.6591640093       10.5218836278      -17.8668847156
 C         1.4511509853       10.5706078678      -15.4201943487
 H        -2.7492338395       10.3069752786      -16.0735014405
 H        -2.0414640516        9.6523458347      -17.5076061586
 H        -1.6024133247       11.3366795415      -17.0876547205
 H         2.8656000092        7.5532973860      -18.0847697334
 H         1.5026669115        8.2549678854      -18.8300424744
 H         1.8518693404        5.5345268800      -17.4520070180
 H         1.0560954357        5.9500010340      -18.9769408583
 H         0.7856867265        2.4244395121      -17.9383140854
 H        -0.6806550079        1.8661651663      -17.2463133136
 H         1.0246201669        0.4611903522      -16.2014103028
 H         0.4888830117        1.6216640615      -15.0082827932
 H         3.6091925697        4.1160883063      -13.5591662934
 H         4.9166606606        2.9750072503      -13.1583015670
 H         3.9254378319        2.7296988899      -10.8519633445
 H         2.4848831948        3.5625131942      -11.4604251257
 H         3.0225638291        8.3973210507      -11.4456427248
 H         3.2873544228        8.7667269566       -9.7307165510
 H         1.3299708268        9.7814273440      -10.8261325278
 H         0.9238052852        8.8804381295       -9.3888527163
 H        -2.4541490804        4.9013499719      -10.0964365642
 H        -0.7298676748        4.9184711954       -9.6178888699
 H        -0.0765469079        3.5301897324      -11.4532351057
 H        -1.7251880571        3.1534385674      -11.9070531519
 H        -2.7020748972       -0.6178459139       -9.4467942455
 H        -3.0101836070        0.8142607507       -8.4428123017
 H        -3.6292796232       -0.2694745186       -6.8171421124
 H        -1.8357919197       -0.5891052465       -6.4923708905
 H         0.1996886791       -5.1217680075       -7.0782111109
 H         0.3357371767       -4.7787012975       -8.6958137059
 H         0.6438884012       -7.0946241565       -8.2399640741
 H        -0.7501280559       -7.3231984744       -9.1289373532
 H        -3.8738692607       -8.8362432342       -6.4247534700
 H        -3.7149872217      -10.4180323136       -6.5178316957
 H        -5.8535023394       -9.5234372717       -7.5383145282
 H        -4.9342213660      -10.0995708813       -8.9633060648
 H        -8.2016264981       -7.6889198145       -9.4354583526
 H        -8.6133836956       -6.4778221212      -10.6573831084
 H        -9.7652803572       -5.9149893645       -8.6424941712
 H        -8.6755469781       -4.6910334389       -9.2741596798
 H       -10.5249804691       -9.1670371772       -5.9845573631
 H        -9.4778344539       -8.6745501696       -4.6877480616
 H        -9.0651897892      -11.1506641908       -4.9051027123
 H        -7.7745778295      -10.3092760919       -5.4443713220
 H       -10.8932445359      -12.3031631451       -4.3708341412
 H       -11.9330915232      -13.3942171255       -5.3707204297
 H       -13.1747695674      -12.8729648052       -3.8657940564
 H       -13.8980903357      -11.8323975624       -5.0930762375
 H       -15.6634486307       -7.8294413999       -3.7051423495
 H       -15.4718416348       -8.5866579433       -5.3149818079
 H       -14.0219594670       -8.0718798117       -4.4270911762
 H       -15.3193067076      -11.3154778952       -1.3689623264
 H       -13.7325214386      -11.9403827375       -1.1483841643
 H       -14.6054880741      -12.2636927519       -2.6444870210
 H       -14.4659929924       -8.7120614867       -1.1387783118
 H       -13.0863850103       -8.2474919582       -2.2129382007
 H       -13.0712465766       -9.6575568903       -1.0644397726
 H       -10.0458369211      -11.4819113116       -9.2475760893
 H       -11.5321924864      -10.9358825833       -8.6341173105
 H       -11.2978272471      -12.7454959426       -9.0205233162
 H        -9.2041828829      -13.6619685252       -6.1886323396
 H        -9.4814966461      -13.7517051998       -7.9350324289
 H       -10.8892732381      -14.0935398697       -6.9699874854
 H        -6.9617161019       -6.7778045952       -5.1787743840
 H        -8.2987919814       -7.2279091237       -4.2124986535
 H        -7.8638403339       -5.4903260649       -4.3532223349
 H       -10.2459464647       -4.9887969300       -5.8584700825
 H       -10.6253237858       -6.3397472694       -4.8263596780
 H       -10.8616156725       -6.3949647258       -6.6435002582
 H        -3.5108772927       -8.0510936700      -10.8418961744
 H        -3.9902994559       -6.3140195842      -10.9250241820
 H        -4.5559755609       -7.5537976418      -12.0902181937
 H        -5.8100005671       -9.5784205342      -11.2665946764
 H        -6.9774284719       -8.2026065539      -11.4946185506
 H        -7.0170536264       -9.3570040455      -10.0572416967
 H         1.0447403120       -9.1380178608       -7.3979604831
 H         0.1113911164       -9.4253353971       -8.9091058084
 H         0.2535986506      -10.7641405691       -7.6443467492
 H        -1.8968876356       -9.4619819505       -5.1083138202
 H        -0.1989871323       -9.4539327598       -5.2978308016
 H        -1.0800039951      -10.8454451593       -5.9368342856
 H        -0.2434445301       -3.6575392402       -5.6973520886
 H        -0.5960633680       -1.9776550600       -5.7927383016
 H         0.1170688536       -2.6947360896       -7.1712500808
 H        -2.8355505505       -3.6344445469       -4.7399800398
 H        -2.0598275512       -5.1533896451       -5.3899289624
 H        -3.5835231737       -4.6692059563       -5.9867611011
 H        -0.4043156593        1.1201743747      -12.2899060923
 H        -1.8593405336        0.3239299989      -11.6627021972
 H        -0.2704817752       -0.4655581572      -11.6759762463
 H         1.4041201888        2.2833802621      -10.0207233932
 H         1.5653871368        0.6068663049      -10.6818867424
 H         1.4228777553        0.8570762525       -8.9867060610
 H        -1.0678859693        6.8041721167       -8.8295990820
 H        -2.6745023778        7.6897395095       -9.4361240806
 H        -1.2664616879        8.5201697737       -9.0402081012
 H        -3.2109673550        7.9496820866      -11.6719457810
 H        -2.1314944248        8.0390358685      -13.0092076599
 H        -2.1347542169        9.3219745499      -11.6486001056
 H         2.0391065809        4.3151008981       -9.1021532856
 H         3.0102888627        4.8442235777       -7.8789673368
 H         3.6743781422        3.6098112231       -8.9294359447
 H         4.4028215502        7.2130281386       -8.5558065962
 H         5.4570650090        6.8985914414       -9.8593859614
 H         5.2692727777        5.7509324690       -8.4347414951
 H         3.7917620836       -0.6713529515      -14.0044528702
 H         3.4761697031       -0.6169842825      -15.7426904974
 H         2.1876531690       -0.5083484670      -14.6772345216
 H         4.8956954984        2.9630465887      -15.0552216788
 H         5.0960603960        1.6995684832      -16.3407737672
 H         5.6695817581        1.6366212652      -14.6680721713
 H        -3.1428637081        5.4705459020      -17.3142928226
 H        -2.1949512345        5.5390860733      -15.7416639051
 H        -2.6581000703        3.9712126497      -16.5561279172
 H        -2.0621180154        3.7719948560      -19.0003673042
 H        -0.3284546556        3.8721516921      -19.2524363366
 H        -1.1836658201        5.2892579631      -19.4406088015
 H        -0.0394734296       10.1682871730      -18.5860235669
 H         1.6481315271       10.6153526852      -18.3020345461
 H         0.4564951474       11.5719742232      -17.8045712222
 H         1.8387722612        9.8875851036      -14.6303595823
 H         0.7802448227       11.3041956348      -15.0856422889
 H         2.3472162078       10.9832040812      -15.9088261899
 Na       -0.2292276983        6.8687246457      -14.4137550419
 Na       -4.8566425303       -4.8450356979       -8.2147729047
