232

 C        -1.8709458217       10.3766863722      -16.5813062276
 C        -0.6747663465        9.6255534788      -15.9481225419
 O        -0.9606876314        8.9367957994      -14.9443771626
 C         0.7951546224        9.8530620483      -16.4542393580
 C         1.4708873676        8.4484654975      -16.6040555007
 O         1.6679699495        7.7334737884      -15.6320435735
 C         1.7047409845        7.9016218873      -18.0227239346
 C         1.2982897079        6.4148761727      -18.0518057409
 C        -0.2099381848        6.1625781398      -17.4940898387
 O        -0.9344072694        7.0563940791      -17.1394486175
 C        -0.7733206834        4.7275817873      -17.4865173061
 C        -0.0187157320        3.8766114556      -16.3935505321
 O         0.2424593306        4.4123428277      -15.3461638636
 C         0.1352652189        2.4674006971      -16.8697389348
 C         0.9890455982        1.4026343400      -16.0759944471
 C         2.4710355007        2.1137995127      -15.9093116095
 O         2.7737543312        3.1617684896      -16.4042910060
 C         3.6016891705        1.4472076290      -14.9938349991
 C         3.1756166266        2.0614056069      -13.5575232991
 O         2.2547172480        1.5996895196      -12.8930334640
 C         4.0142784638        3.2653269801      -13.0014772409
 C         3.5040611951        3.8001083718      -11.6839217512
 C         4.1990042572        5.1239541694      -11.3963310815
 O         5.0044190951        5.6900455112      -12.0904362903
 C         3.7040509202        5.6669069864      -10.0183415579
 C         2.4693779346        6.6029670245      -10.2483182826
 O         1.3725711707        6.0443932032      -10.4395997605
 C         2.6549239061        8.0157660577      -10.5027865439
 C         1.2889852375        8.8229831884      -10.4641823629
 C         0.2959050153        8.1698458895      -11.4516237690
 O         0.4809516037        8.0880712626      -12.6742823491
 C        -1.2286752659        7.5827284942      -11.0382882883
 C        -1.1048164561        6.0451277719      -11.3532431445
 O        -1.1513892941        5.6636669402      -12.5230670053
 C        -1.1618662465        4.9251430739      -10.3520614107
 C        -1.0196297588        3.5526547350      -10.9932426217
 C        -1.2974611674        2.5058538115       -9.8874110308
 O        -2.0242191784        2.7743960829       -8.9658941387
 C        -0.5211775581        1.0918326650      -10.0499435876
 C        -0.9454283278        0.0524858398       -8.8979477654
 O        -0.1513176745       -0.4524779309       -8.1467000880
 C        -2.4857674948       -0.2715246524       -8.6789282724
 C        -2.6658156757       -1.0106723006       -7.3563078542
 C        -2.9940805504       -2.5023573869       -7.4406250638
 O        -3.9952540162       -2.8349775630       -8.0761621628
 C        -2.0661532517       -3.5556431385       -6.7513461740
 C        -1.6944831125       -4.5766918843       -7.9539030151
 O        -2.4565979155       -4.9054822001       -8.8880849227
 C        -0.4246494636       -5.4103011191       -7.8875100852
 C        -0.6356184368       -6.8556321126       -8.2782390375
 C        -1.1107608667       -7.6730279347       -6.9955792289
 O        -1.4449688238       -7.1141903869       -5.9767810122
 C        -1.1925117281       -9.2300466838       -7.0833598281
 C        -2.4890515184       -9.4463222282       -7.8394505725
 O        -2.3898963828       -9.4703326685       -9.0776754098
 C        -3.8551038021       -9.7117797056       -7.2073271840
 C        -5.0726472512       -9.4142541468       -8.1510102557
 C        -5.1070603097       -7.9697975801       -8.6045511683
 O        -4.5974246502       -7.0895833767       -8.0483923963
 C        -5.7278119018       -7.6772117759      -10.0398823347
 C        -6.6537779368       -6.4514514098       -9.9803777365
 O        -6.1672777881       -5.3186362397       -9.9940719311
 C        -8.2242677287       -6.6486310863       -9.6807446839
 C        -8.7151627907       -5.6161057464       -8.5948009934
 C        -7.9851275742       -5.7234501330       -7.1888490236
 O        -6.9197124612       -5.1805916071       -7.0077123432
 C        -8.6947612308       -6.4519537923       -6.0163332162
 C        -8.4596122187       -7.9783421541       -6.2992440611
 O        -7.6023437748       -8.1646528135       -7.1366292866
 C        -9.2704361334       -9.0746186379       -5.6713704081
 C        -8.6605872387      -10.4333912621       -5.8858734372
 C        -8.9899778042      -11.0386032620       -7.1838527099
 O        -8.2540969694      -10.8050429915       -8.1604743251
 C       -10.3741754958      -11.9433182308       -7.3951381510
 C       -11.4338325575      -11.6203938780       -6.2812497887
 O       -12.3397998302      -10.8065175683       -6.5328064746
 C       -11.5519565213      -12.4550586344       -5.0355231015
 C       -12.7396613726      -12.0483606860       -4.1516302488
 C       -12.6422728046      -10.7573872917       -3.3608944542
 O       -11.6202588898      -10.1013838077       -3.3195506893
 C       -14.0455744845      -10.2435402886       -2.5324631381
 C       -15.0694885263      -10.0155406781       -3.7741523873
 O       -15.7418830574      -10.9111700220       -4.2525077851
 C       -15.0990526774       -8.6766498628       -4.5191621617
 C       -14.5448082901      -11.3799938006       -1.7318591351
 C       -13.7131516956       -8.9921985344       -1.7040394307
 C       -10.9114406211      -11.6553721384       -8.7893181592
 C        -9.7568181907      -13.3943083037       -7.2117372560
 C        -8.0020212865       -5.9727295006       -4.6681121109
 C       -10.2315313745       -6.1349247134       -5.9229151155
 C        -4.4961757137       -7.3174311458      -10.8903104240
 C        -6.4958679291       -8.9820636159      -10.5418902780
 C        -0.0325405521       -9.8410205661       -7.9076030841
 C        -1.3399981068       -9.7832343290       -5.6569248334
 C        -0.7917800511       -2.8646770524       -6.1660762655
 C        -2.8919474429       -4.2193804692       -5.6313920002
 C        -0.9696456574        0.3987104630      -11.3496659258
 C         0.9375994889        1.2958706863       -9.9552308804
 C        -1.4774652352        7.9852193577       -9.5428842699
 C        -2.3109289625        8.2386349106      -11.9379707561
 C         3.1749427355        4.6519184058       -8.9649862961
 C         4.9740142711        6.3471990656       -9.4490229526
 C         3.2820963394       -0.0688948117      -14.8836063349
 C         4.9579007172        1.5871675256      -15.5389997489
 C        -2.3696109706        4.9147848214      -17.0504867622
 C        -0.7095734809        4.1767840100      -18.9126358193
 C         0.9972223902       10.6587286078      -17.7363251653
 C         1.6389720307       10.6568304178      -15.3092787594
 H        -2.6328495186       10.4104707540      -15.8305237679
 H        -2.3941854798        9.8435356130      -17.4058739163
 H        -1.5812985923       11.3499462290      -16.9377634073
 H         2.6514493340        8.1905380781      -18.3241662953
 H         1.0042975561        8.3988970394      -18.7681897751
 H         1.8196620707        5.6921086478      -17.4177234980
 H         1.3724839207        6.0423032203      -19.1360096683
 H         0.6519285696        2.4792012964      -17.8625975391
 H        -0.8504154387        2.0100600347      -17.1002814129
 H         0.9533196138        0.5429216781      -16.7391691759
 H         0.7348372808        1.1237256225      -15.0543966779
 H         3.9183313854        4.1355390729      -13.6877961364
 H         5.0528231887        2.9330176673      -12.8583185708
 H         3.5782259226        3.0338766081      -10.9318009693
 H         2.4486118652        4.0149847766      -11.8450657788
 H         3.0665995683        8.0133346641      -11.5295291983
 H         3.4686384343        8.3961650491       -9.9328778286
 H         1.5705171572        9.8658786107      -10.6448882689
 H         0.9956114265        8.7496071776       -9.4230472253
 H        -2.0239393339        4.8810105762       -9.7359259559
 H        -0.3390981270        5.0745915325       -9.6291041450
 H         0.0559660655        3.4074685760      -11.4157060079
 H        -1.6715484289        3.5653837292      -11.8314221912
 H        -3.0063775230       -0.7726869254       -9.5414151478
 H        -2.8858178994        0.7282976780       -8.5225490443
 H        -3.4642061128       -0.6015642931       -6.8788214187
 H        -1.6694678579       -0.7762260024       -6.8433226218
 H         0.1220677804       -5.3018907248       -6.9791604466
 H         0.3681748836       -4.8908060277       -8.5147029205
 H         0.2666158066       -7.3801330276       -8.7067719351
 H        -1.3828346348       -6.9813273024       -9.0307850756
 H        -4.0044715224       -9.3019677342       -6.2218001994
 H        -4.0516425245      -10.6803140875       -6.8638505102
 H        -6.0655559090       -9.7372578154       -7.6930739870
 H        -4.9143201855      -10.0186586071       -9.0363857439
 H        -8.4738506723       -7.6909561917       -9.4931025291
 H        -8.7565129574       -6.3428547858      -10.6404804868
 H        -9.8560081531       -5.6852138385       -8.3994471126
 H        -8.4123360182       -4.6767131349       -9.1324156110
 H       -10.2663914241       -8.9516494936       -6.1609501565
 H        -9.4119203435       -8.7781143809       -4.5863281489
 H        -8.9577769228      -11.1976422430       -5.1300160703
 H        -7.5762564833      -10.2422222469       -5.6581212598
 H       -10.5810179351      -12.3495331707       -4.5588062711
 H       -11.7249053509      -13.5169909978       -5.3478925830
 H       -13.0894822356      -12.9824681187       -3.6222495995
 H       -13.5073064807      -11.7474950671       -4.9057068161
 H       -15.9763420294       -8.1141306354       -4.2285053374
 H       -15.0711845768       -8.7855219492       -5.6148932114
 H       -14.1656335886       -8.1398285333       -4.2482595669
 H       -14.4124054012      -11.1440867317       -0.6985708631
 H       -13.9106275186      -12.2162774975       -1.8823075063
 H       -15.6016626589      -11.7141439702       -1.9556151255
 H       -14.4685126257       -8.7894563131       -1.0159203172
 H       -13.7024357781       -8.2159906771       -2.4331371031
 H       -12.7337429998       -8.9906850644       -1.1365123739
 H       -10.4634911949      -12.3493498378       -9.5043772084
 H       -10.6832601231      -10.6718675931       -9.1595725866
 H       -11.9816558186      -11.8724989459       -8.7011288479
 H        -9.7112037971      -13.7267810606       -6.2419545664
 H        -8.7244628308      -13.4411130778       -7.6304827058
 H       -10.2883924792      -14.0380418262       -7.8780465736
 H        -6.9065496752       -5.9694766635       -4.7786822831
 H        -8.3171129141       -6.5908460082       -3.8303695591
 H        -8.2763530559       -4.9518275168       -4.6870321375
 H       -10.3957265287       -5.0192530097       -5.9180000215
 H       -10.5821893501       -6.4938679792       -4.9863696328
 H       -10.7827373558       -6.4632020823       -6.8511403748
 H        -3.6066015968       -7.8798967442      -10.8827289146
 H        -4.2260242191       -6.3716405815      -10.5033803552
 H        -4.8422329392       -7.1225748510      -11.9183048353
 H        -5.7224824207       -9.7896093931      -10.7512363771
 H        -6.9916122253       -8.7466199153      -11.4857662937
 H        -7.2010326979       -9.3490709523       -9.8688246984
 H         0.8379899575       -9.6363422001       -7.3448046329
 H         0.0041391452       -9.4975434897       -8.9452609604
 H        -0.2897814206      -10.8799916650       -8.0348938930
 H        -1.4321497883       -8.9058994088       -4.9920476503
 H        -0.4982446707      -10.3969346758       -5.3314224668
 H        -2.1952488675      -10.3565122046       -5.4754864058
 H        -0.0720513420       -3.6129980829       -5.8026226458
 H        -1.0240351469       -2.2716260844       -5.2808331058
 H        -0.3969215216       -2.1771148435       -6.9340683149
 H        -3.0336955031       -3.4987953744       -4.8774468857
 H        -2.3706070776       -5.0346928694       -5.2566059673
 H        -3.7803954879       -4.7350108985       -5.9988410112
 H        -0.1342453495        0.3716978553      -12.0542917736
 H        -1.7851921030        0.8606922553      -11.8502435912
 H        -1.1906430999       -0.7014095110      -11.1395484055
 H         1.2418014842        2.1592863182      -10.6111692181
 H         1.5824673806        0.4401656568      -10.2272461120
 H         1.1303462843        1.6313567567       -8.9088837712
 H        -0.6713306530        7.7635432687       -8.9325827520
 H        -2.3990024223        7.5074792986       -9.2608326118
 H        -1.7404215948        9.0942642135       -9.5241473940
 H        -3.2342415894        7.6068936651      -11.8575143790
 H        -1.9350705785        8.1682362067      -12.9461450429
 H        -2.5452494663        9.2006263560      -11.6049293254
 H         2.3863849477        4.0288233474       -9.3274011429
 H         2.6583396042        5.1243862359       -8.1307526905
 H         4.0468189217        4.0787436527       -8.5610793678
 H         4.8103311475        6.8248427193       -8.4210418537
 H         5.4322146558        7.0764276473      -10.0436022605
 H         5.6327574050        5.4021977854       -9.3053491869
 H         4.0834261873       -0.6122665651      -14.4801588206
 H         3.2274186980       -0.5248646551      -15.9098962951
 H         2.4706261618       -0.4141126049      -14.2947712599
 H         5.1031545879        2.4288077054      -16.2159138275
 H         5.2095269658        0.6444488954      -15.9059723046
 H         5.7385394106        1.8709486420      -14.7344103529
 H        -2.6779090883        5.7922973786      -17.5280647148
 H        -2.4389174069        5.0462903542      -15.9774242639
 H        -3.0598704851        4.0739872143      -17.4388215559
 H        -0.9806200095        3.1221211104      -18.9435345426
 H         0.3093073804        4.2646572823      -19.2424937376
 H        -1.1938274296        4.7627514671      -19.6730165890
 H         0.2900492552       10.3899716537      -18.5627568740
 H         2.0263881382       10.7314335566      -18.1410368468
 H         0.6644532755       11.7280462764      -17.5891819654
 H         1.5886952711       10.0857707986      -14.4116111027
 H         1.0248327562       11.6067040471      -15.1605773639
 H         2.6598163744       10.8471794793      -15.6332497192
 Na       -0.3214509698        6.5897419043      -14.4948871898
 Na       -4.9181327141       -4.7385216436       -8.1763102234
