232

 C        -1.3376305626       11.0916261469      -16.3901224563
 C        -0.6167268003        9.8360207586      -16.0223876723
 O        -1.0917983693        8.8562246041      -15.4297314504
 C         0.9725250467        9.9131680626      -16.1192071258
 C         1.4992352145        8.4841181728      -16.5605170890
 O         1.9152951764        7.6041905148      -15.8262252749
 C         1.3785674453        8.2279843294      -18.0113028622
 C         1.2018088801        6.7070500552      -18.4436496332
 C        -0.2128474549        6.2037232117      -17.9292920201
 O        -1.0003524089        6.9808734538      -17.4161551457
 C        -0.5865050456        4.7079609031      -18.0536881599
 C        -0.1056399229        4.1575340208      -16.7244891501
 O         0.2231521032        4.8586441712      -15.8027853588
 C        -0.0114414789        2.5337107158      -16.7504093422
 C         0.9108559882        2.0377166178      -15.6212360203
 C         2.5175800703        2.0421615935      -16.0137767027
 O         2.8687498409        2.3902766333      -17.1224595016
 C         3.5701738783        1.4887179799      -15.0644826943
 C         3.5462486055        2.0231162894      -13.5979359931
 O         2.8103910060        1.4714950103      -12.7929358359
 C         4.2349209148        3.2988812358      -13.2211711921
 C         3.4433376078        4.1812291684      -12.3013299113
 C         4.2967681538        5.4149013219      -11.8742019700
 O         4.9655653513        5.9399288847      -12.7293926692
 C         4.1547653304        5.9346037905      -10.4121386237
 C         2.8371168262        6.7925117383      -10.3138115820
 O         1.7812389901        6.2660021160      -10.2201568133
 C         2.7857349089        8.3503945615      -10.5601136823
 C         1.3655932704        8.8893831892      -10.4794836439
 C         0.4687644608        8.1646686104      -11.4538443491
 O         0.9041621712        7.8607399225      -12.5226752613
 C        -1.0963330904        7.6796540486      -11.1475680263
 C        -1.1917492289        6.1395370752      -11.5052777379
 O        -0.8387979986        5.7357756534      -12.6066202645
 C        -1.5843243900        5.1838080090      -10.4384710533
 C        -0.9619829774        3.8188763795      -10.5885664215
 C        -1.3186533287        2.7401341908       -9.5734479403
 O        -1.8524474537        3.0150667360       -8.5127979464
 C        -0.7831520911        1.2169032758       -9.8667381971
 C        -1.2059948191        0.2321079716       -8.7181514997
 O        -0.3180132057       -0.2865924841       -8.0880790389
 C        -2.6570892688       -0.2338940586       -8.5168547740
 C        -2.7468598941       -1.2462028227       -7.3160998253
 C        -3.0472633318       -2.7235785214       -7.6428936490
 O        -3.9022315640       -2.9804799689       -8.5335675487
 C        -2.4710757413       -3.9183172310       -6.7769445129
 C        -1.9471368949       -5.1035393098       -7.5966096354
 O        -2.6575724877       -5.6765241897       -8.4598069038
 C        -0.5773598038       -5.6364653333       -7.3393541988
 C        -0.4969306403       -7.1410635613       -7.5685385619
 C        -1.3413981598       -7.8908757023       -6.5741062564
 O        -1.8202070651       -7.3950391793       -5.5786831362
 C        -1.5755838057       -9.3564112179       -6.8290646466
 C        -2.8256909809       -9.4784903914       -7.8130773653
 O        -2.6433608033       -9.3172138142       -9.0090428131
 C        -4.2490126079       -9.8507013416       -7.2996167188
 C        -5.2682305793       -9.7324871871       -8.4299194577
 C        -5.5796414152       -8.2121738002       -8.8136287031
 O        -5.1031388352       -7.3350985513       -8.0573425939
 C        -6.2644528299       -7.9408170302      -10.1838722096
 C        -6.9668259874       -6.5711747653      -10.0848874967
 O        -6.5011745709       -5.5008353217      -10.3603167494
 C        -8.3484614791       -6.5017584183       -9.4166418703
 C        -8.5830526725       -5.3097421292       -8.3549947251
 C        -7.9471539845       -5.5296318089       -7.0072502867
 O        -6.8281060131       -5.0922993847       -6.7726119052
 C        -8.7506918428       -6.3251750941       -5.9284502870
 C        -8.1476705608       -7.8485288071       -5.8928676855
 O        -7.0178131871       -8.1167749416       -6.2096689776
 C        -9.0446289288       -8.9000895015       -5.3623432313
 C        -8.4879879861      -10.2727111876       -5.7013066894
 C        -9.0792544749      -10.6548287444       -7.0825570809
 O        -8.7945506426       -9.9545629456       -8.0792031473
 C       -10.1818059760      -11.6862388207       -7.2072901327
 C       -11.3165261108      -11.5744789167       -6.0781867411
 O       -12.0817581180      -10.5731087674       -6.0723452049
 C       -11.3185685932      -12.5023954118       -4.8676231015
 C       -12.5645027977      -12.1715794766       -4.0164570806
 C       -12.4865571088      -10.8333983784       -3.3662923619
 O       -11.3764850725      -10.3105078327       -3.2907031057
 C       -13.7849329632      -10.3540450662       -2.6383315085
 C       -14.9591865686      -10.4613094999       -3.6925591457
 O       -15.7507095726      -11.3797814596       -3.7186180632
 C       -14.8623655262       -9.5128787214       -5.0316793468
 C       -14.0846253632      -11.3469542312       -1.5027508257
 C       -13.5913332803       -8.9014523976       -2.1769285744
 C       -10.8936040969      -11.6124263068       -8.5572197672
 C        -9.4573592205      -13.0636075290       -6.8872815864
 C        -8.4491796708       -5.8457883771       -4.4282275141
 C       -10.2469561614       -6.3470977790       -6.1808300919
 C        -5.0376032499       -7.8829557272      -11.1486551148
 C        -7.1862952229       -9.0534155295      -10.6522149954
 C        -0.3974722893       -9.9977192823       -7.6030354704
 C        -1.8504926578      -10.1821081687       -5.5595854453
 C        -1.3328611074       -3.3228182707       -5.9538676803
 C        -3.5881598004       -4.3042869798       -5.8033172978
 C        -1.4529816108        0.4734615028      -11.0724047461
 C         0.6666990527        1.2278164531      -10.0861149927
 C        -1.3841777395        8.1027648142       -9.6987189090
 C        -2.0569849768        8.4001365382      -12.1184847756
 C         3.9969313208        4.7540383830       -9.2549164949
 C         5.4057102442        6.8361620173      -10.0213671053
 C         3.2581672927       -0.0268072438      -14.9581470898
 C         5.0243128050        1.7585491919      -15.5716060114
 C        -2.1822450086        4.3575289107      -18.2925704883
 C         0.1414693171        4.0462492999      -19.1970205889
 C         1.4612449784       10.9658805893      -17.2054353589
 C         1.5061264488       10.1822078184      -14.6979672928
 H        -2.3946950605       10.9230154120      -16.3300246788
 H        -1.0475071875       11.3709060464      -17.4010576753
 H        -1.0115530241       11.9131898253      -15.7029585238
 H         2.2178313350        8.8138098766      -18.5898077711
 H         0.4268402257        8.6935819431      -18.2541935641
 H         1.9553682290        5.9163804034      -18.0568686252
 H         1.4500231562        6.6774476298      -19.4939987727
 H         0.4917371625        2.2637255853      -17.6813103098
 H        -1.0301670784        2.1197798686      -16.8024260006
 H         0.7173392496        0.9856357641      -15.3510142406
 H         0.7119715756        2.7159106030      -14.7652102746
 H         4.5646206223        4.0486180006      -13.9820861925
 H         5.2448746323        3.0258765718      -12.7734741328
 H         3.2202529561        3.6029049974      -11.3875455553
 H         2.4448987683        4.4650178895      -12.7205477019
 H         3.2789768538        8.7382489513      -11.4771622671
 H         3.3349582451        8.8661922844       -9.7247367449
 H         1.4009873962       10.0034570462      -10.6804039880
 H         1.2146685650        8.6887783401       -9.5143242877
 H        -2.7423137654        5.0466090450      -10.4029787268
 H        -1.4902748681        5.5865447409       -9.4194314547
 H         0.0759928288        3.9520363895      -10.5544516340
 H        -1.1183396276        3.4166512003      -11.6632300482
 H        -2.8535340847       -0.6111085622       -9.5348980918
 H        -3.3096343138        0.5457444045       -8.2128864290
 H        -3.6184967078       -0.7825662274       -6.7320500595
 H        -1.8402186120       -1.0766105676       -6.7645393592
 H         0.0217769379       -5.2820485087       -6.4485580530
 H         0.0540575217       -5.1811753073       -8.1274935514
 H         0.5348254605       -7.3607700525       -7.7261196343
 H        -1.0376042196       -7.2923619436       -8.5699218363
 H        -4.6898936609       -9.3363859575       -6.3064353639
 H        -4.0789447263      -10.9178258737       -6.8955003430
 H        -6.1989034460      -10.0990705457       -8.1305403388
 H        -4.9300849069      -10.3417989051       -9.3169080235
 H        -8.6291571894       -7.4768918980       -9.1147383895
 H        -9.0929588451       -6.2356774066      -10.2402931442
 H        -9.6488270052       -5.1783714759       -8.3679690654
 H        -8.0902476603       -4.4437757452       -8.7721293743
 H        -9.9605526050       -8.7138019887       -5.8946590023
 H        -9.3146389452       -8.7458624747       -4.3278751192
 H        -8.9471941284      -10.9038535715       -4.9278451822
 H        -7.3662131020      -10.2236760189       -5.6323615858
 H       -10.3862630578      -12.4629382371       -4.2043043381
 H       -11.3138269308      -13.5371637596       -5.2858103415
 H       -12.6908784712      -12.9092800782       -3.2840620372
 H       -13.4839214738      -12.2191028082       -4.5732612069
 H       -14.9779077045       -8.4185323659       -4.7604237788
 H       -15.6636516213       -9.8065358786       -5.6242580882
 H       -13.9313312966       -9.7086329713       -5.5898135910
 H       -14.1999169565      -12.3766269659       -1.9032764740
 H       -15.0450040855      -11.1155084978       -1.0718144211
 H       -13.2020852831      -11.3591606357       -0.8151440804
 H       -14.6202851257       -8.4694819094       -2.1236258464
 H       -13.0740979240       -8.3021048139       -2.9240680498
 H       -13.0170626293       -8.7645120028       -1.3144217588
 H       -12.0084231867      -11.7032197814       -8.3716006843
 H       -10.5360790649      -12.3028738193       -9.3162942627
 H       -10.6575196017      -10.6743169616       -8.8929985690
 H        -9.3244891866      -13.2438070198       -5.8102893132
 H        -8.5336287845      -13.0152698506       -7.4079269541
 H       -10.0570584598      -13.8140122669       -7.2787657149
 H        -7.3612045177       -5.8285676243       -4.1849427506
 H        -9.0503964460       -6.6250627298       -3.8983425417
 H        -9.0280862962       -4.9380489493       -4.2256805446
 H       -10.5921178237       -5.3050142556       -6.0330161233
 H       -10.6406573239       -7.0634679199       -5.4252349223
 H       -10.5948496411       -6.7290039802       -7.1183081963
 H        -4.4199017682       -8.7794027547      -10.9755697330
 H        -4.3439373565       -7.0525402012      -10.9580733249
 H        -5.3589489278       -7.8244314126      -12.1391596907
 H        -6.5207028767       -9.9999671856      -10.6675929262
 H        -7.4785393058       -8.9745335589      -11.6548168221
 H        -8.1237997953       -9.1890488305      -10.0833702941
 H         0.5040866780       -9.9201969135       -6.9613738471
 H        -0.2956774346       -9.3528982066       -8.5226487662
 H        -0.6345560345      -11.0236059273       -7.8576109567
 H        -1.0527783149      -10.0869922033       -4.8385616729
 H        -1.8968055447      -11.2206020125       -5.8267216496
 H        -2.7820787991       -9.8741199998       -5.0347843421
 H        -0.8662353295       -4.0830696973       -5.3208657193
 H        -1.6259917972       -2.4181686718       -5.4147527665
 H        -0.5276492782       -3.0765445840       -6.6867129327
 H        -3.7907629334       -3.3805002745       -5.2811699246
 H        -3.2213567382       -5.0505219953       -5.0818705035
 H        -4.4859476311       -4.6245323819       -6.2984490155
 H        -0.9733267552        0.8674954213      -11.9988352861
 H        -2.5402225784        0.6812348491      -11.2330043456
 H        -1.3320011906       -0.6105644444      -11.1139689049
 H         1.1128100880        0.2823404014       -9.7588191825
 H         1.1895710857        1.9394793751       -9.4388494079
 H         0.9983359174        1.4939389920      -11.1208534039
 H        -0.7560659824        7.5204177614       -9.0032602117
 H        -2.4161292665        7.8689809932       -9.4945177677
 H        -1.1570019576        9.1360609358       -9.6862627677
 H        -3.0585803183        8.0997078484      -11.8330201576
 H        -1.7530574558        8.1701028629      -13.1393374156
 H        -1.9227073155        9.4878761932      -12.0168136412
 H         3.1131777690        4.1046061459       -9.5072651981
 H         4.0458825928        5.1542483217       -8.2240336516
 H         4.8011412127        4.0925847932       -9.3183386956
 H         5.1523968805        7.7253273276       -9.3885444764
 H         5.7604495214        7.1678884337      -10.9186228020
 H         6.2694679696        6.4239451000       -9.5132287940
 H         3.9364062771       -0.5137397944      -14.2528471300
 H         3.2220027440       -0.7088689603      -15.7782363856
 H         2.3002196501       -0.0091696343      -14.4275418127
 H         5.3952730168        2.5524908294      -14.9765274749
 H         5.2007822663        2.2762391971      -16.5520828634
 H         5.6587004923        0.8800546210      -15.5317935000
 H        -2.4080089338        5.0107949767      -19.1280914215
 H        -2.7972496098        4.4776192824      -17.4512440375
 H        -2.2722311760        3.3240159542      -18.6492243139
 H         0.0196857375        3.0159542490      -19.3092045377
 H         1.2233418944        4.3148317616      -19.1289471015
 H        -0.3509299465        4.4526359271      -20.0847246933
 H         1.1712742398       10.7889219024      -18.2476691459
 H         2.5852999515       10.8395891763      -17.2281815759
 H         1.2436521022       12.0052559547      -16.8422612947
 H         1.3241426074        9.2952596647      -14.0352577390
 H         0.9290521027       10.9726895062      -14.2731578704
 H         2.4641451502       10.6530264641      -14.8014399068
 Na       -0.1528434666        6.7147666825      -14.6111089161
 Na       -5.0418996423       -4.9753521313       -8.5437918680
