232

 C        -1.0406816038       11.3970668717      -16.1238703914
 C        -0.3539460796       10.1207559224      -15.7611608359
 O        -0.8791274461        9.3196474567      -15.0517259892
 C         1.1350617643        9.9081401398      -16.1638592807
 C         1.3779508277        8.6131594016      -16.9298227028
 O         1.5848158265        7.5734228785      -16.3401609866
 C         1.1689084487        8.5839203336      -18.4444849570
 C         1.2297513805        7.1417613385      -18.8246025108
 C         0.1691616804        6.3202580144      -18.0356940137
 O        -0.7991863299        6.8788129821      -17.5101590800
 C         0.0801536257        4.7766441993      -18.0850197719
 C        -0.0817922311        4.1715286070      -16.6626602469
 O        -0.1681227453        4.9829637659      -15.7320848660
 C        -0.1516945635        2.7068154321      -16.4306842058
 C         1.0601256443        2.1967391809      -15.5243187781
 C         2.5234451934        1.9859110127      -16.1644915078
 O         2.8455773357        2.0637787453      -17.3604625955
 C         3.5959542621        1.4845918832      -15.1414753061
 C         3.4811883490        2.3678810655      -13.7896929757
 O         3.0221903596        1.7981253005      -12.8263602278
 C         3.8848977843        3.7831625940      -13.7571951085
 C         3.9784127981        4.2437304800      -12.2971003793
 C         4.5102685643        5.6279019416      -12.1940441660
 O         4.9254089693        6.2970050173      -13.0918012693
 C         4.5626351703        6.2456386980      -10.7366166447
 C         3.1536431781        6.8451681701      -10.4863902135
 O         2.2539191324        6.0177375706      -10.1242797362
 C         2.8060027814        8.2795646206      -10.6290038914
 C         1.2824639585        8.6932613346      -10.6509310509
 C         0.5621509572        7.7926857369      -11.6207706632
 O         1.1282701921        7.3968705653      -12.6153072303
 C        -1.0017416337        7.5043741295      -11.2435935570
 C        -1.1029702769        5.9917583269      -11.6328883552
 O        -1.3057147520        5.7573292593      -12.7648924230
 C        -0.8477831036        4.9034507703      -10.5083291968
 C        -1.0252887192        3.4175031621      -11.0270431486
 C        -1.4600362594        2.4761502695       -9.8887470821
 O        -1.9816270655        2.8366289184       -8.8302409708
 C        -1.1106073561        0.8894355880      -10.0257078892
 C        -1.3043086978        0.2044921688       -8.6214639732
 O        -0.3641875634        0.1899354302       -7.8259945763
 C        -2.6417600635       -0.4367932928       -8.3464256004
 C        -2.5846234516       -1.2731453312       -7.0738522949
 C        -3.0946940054       -2.6430308508       -7.3440893783
 O        -4.0171204264       -2.8154848981       -8.1306157919
 C        -2.6097139173       -3.8520636516       -6.3476101924
 C        -2.2906563478       -5.0887378912       -7.1138571187
 O        -3.1415766298       -5.6342552163       -7.8656773107
 C        -0.9480656398       -5.7689350141       -6.8674634857
 C        -0.9021645605       -7.2315008074       -7.3297130330
 C        -1.7810998837       -8.0207327323       -6.3984047621
 O        -2.2231072604       -7.5730028311       -5.3663244918
 C        -2.0826485425       -9.5447297348       -6.7203941105
 C        -3.2135637969       -9.5779399715       -7.8818949682
 O        -2.9350209721       -9.2142082987       -8.9957283415
 C        -4.6205914531      -10.0795012689       -7.5474361548
 C        -5.4304464822       -9.9620389284       -8.8211249916
 C        -5.6370826526       -8.4504908999       -9.1812268531
 O        -4.8926475913       -7.5753808321       -8.7414406313
 C        -6.6164562467       -8.0858463123      -10.4270045740
 C        -7.2888303116       -6.8361723174      -10.0975385928
 O        -6.7057342096       -5.7652941272      -10.3948812263
 C        -8.5806706774       -6.7265496630       -9.3688528379
 C        -8.7563545140       -5.5026065319       -8.4637178052
 C        -8.0319869814       -5.6309084332       -7.1038930684
 O        -6.8309934707       -5.3387259203       -7.0507420991
 C        -8.7063368346       -6.1670640559       -5.9131950055
 C        -8.0086895630       -7.5536982488       -5.5346812261
 O        -6.8235838463       -7.6564565375       -5.5371480489
 C        -8.8493993271       -8.6587629021       -4.9539582575
 C        -8.3253140761      -10.0895968164       -5.3909668287
 C        -9.1562965871      -10.2801737564       -6.7224914235
 O        -9.0431097459       -9.4534031187       -7.5695682558
 C       -10.0185503618      -11.6380880255       -6.9172857324
 C       -11.2419500888      -11.5034641238       -5.9333280087
 O       -11.7916284339      -10.4245872904       -5.9180199749
 C       -11.9355690763      -12.6265418744       -5.2185002180
 C       -12.1146073546      -12.4394913570       -3.6817190813
 C       -12.1907887117      -10.9247476778       -3.2325584330
 O       -11.1459061024      -10.2858079388       -3.1033370263
 C       -13.5567471285      -10.4264555390       -2.7726259336
 C       -14.7966050337      -10.8463995861       -3.6605951311
 O       -15.7064579538      -11.5051288197       -3.2017529386
 C       -14.8677459890      -10.2963112502       -5.1726019106
 C       -13.6374969187      -11.2497069809       -1.4194950528
 C       -13.5275764808       -8.8570086877       -2.5730885484
 C       -10.5505338224      -11.7498874369       -8.3076303651
 C        -9.0842177795      -12.8032926936       -6.5186094769
 C        -8.4647284762       -5.2413828214       -4.5872199525
 C       -10.2366596845       -6.3356864186       -6.0089058735
 C        -5.6516538350       -7.9157458210      -11.6724914948
 C        -7.5628919581       -9.2424881129      -10.7919358875
 C        -0.8381391922      -10.2229617251       -7.2935011847
 C        -2.3880154167      -10.2507559244       -5.3402245737
 C        -1.4947865537       -3.3924083244       -5.3210495471
 C        -3.9329725880       -4.2037879616       -5.5088152965
 C        -2.0840650251        0.3100228529      -11.0555493171
 C         0.3994786946        0.9668468736      -10.2198146369
 C        -1.3915715886        7.8512607980       -9.7948285996
 C        -1.9612429982        8.3425720132      -12.2619067899
 C         4.7028180591        4.9788611261       -9.7745544084
 C         5.6548588276        7.2726775013      -10.6739023484
 C         3.3376454644        0.0244463517      -14.7703635280
 C         5.0706207016        1.7521233552      -15.7045901746
 C        -1.4068603246        4.4773968520      -18.7090891893
 C         1.1715605558        4.2872759243      -19.1014541200
 C         1.7202488256       11.1565253393      -16.8964180080
 C         1.8264766231        9.8521215902      -14.8006680172
 H        -2.0357387825       11.2952697802      -15.6392523211
 H        -1.0527872542       11.4605137270      -17.1877155780
 H        -0.6360627034       12.3038926334      -15.7084847373
 H         1.9630725626        9.1500239941      -18.9265881467
 H         0.1347724850        8.9577792526      -18.5611062465
 H         2.2532383723        6.8602197217      -18.8034582184
 H         0.8420551163        6.8118473589      -19.7762701007
 H        -0.0836237873        2.3118338236      -17.4331408331
 H        -1.0633264486        2.3544054216      -15.9774481234
 H         0.7424601718        1.2215553748      -15.1097131093
 H         1.1148109893        2.8474003426      -14.6301012127
 H         3.1378716009        4.3461534568      -14.3364670765
 H         4.7252203825        3.9909750886      -14.4063767272
 H         4.4702262529        3.4985503894      -11.5885628518
 H         2.9296315676        4.2409674976      -11.8734078691
 H         3.3173101018        8.7575052475      -11.4992780475
 H         3.1942962176        8.8438885295       -9.7605793806
 H         1.2324587386        9.7135844307      -10.9734399082
 H         1.0467661757        8.6619727687       -9.5548662394
 H        -1.5426715953        5.0645955402       -9.6619331311
 H         0.1897595436        5.0428007270      -10.0919507856
 H        -0.1661812228        3.1200669993      -11.6830468001
 H        -1.8639300940        3.4094328654      -11.6719970116
 H        -2.9088374659       -1.0488676457       -9.1659120353
 H        -3.5624681425        0.3040047944       -8.3399634937
 H        -3.3945404082       -0.8323710493       -6.3382987726
 H        -1.6682596264       -1.1794936128       -6.5931226041
 H        -0.7009636627       -5.7952528073       -5.8102511953
 H        -0.2342035872       -5.1525058796       -7.4421910224
 H         0.2080673956       -7.4201707294       -7.2674266949
 H        -1.2693183440       -7.2779462926       -8.3297229168
 H        -5.0714058426       -9.5000834942       -6.8438834400
 H        -4.4858580168      -11.0918739548       -7.1797555553
 H        -6.4398942113      -10.5069450379       -8.6066783305
 H        -4.9998931883      -10.4026762316       -9.6577100286
 H        -8.7716978626       -7.6831419667       -8.8406772366
 H        -9.2848897951       -6.6693986359      -10.1060648260
 H        -9.7670534693       -5.3447895303       -8.3333333927
 H        -8.3903827925       -4.6455372752       -8.9976389772
 H        -9.8604205302       -8.5165200647       -5.3650109839
 H        -8.9848811765       -8.7150845541       -3.9222606288
 H        -8.5797483883      -10.7698792074       -4.5863474760
 H        -7.3340941520      -10.1137092284       -5.7534993662
 H       -11.4289341615      -13.5607803519       -5.3914297029
 H       -12.9185705316      -12.8320314571       -5.7706693283
 H       -11.2857469646      -13.0054145664       -3.2686077675
 H       -13.0012399051      -12.9587343550       -3.4449342191
 H       -15.3482615758       -9.3220521646       -5.0970458928
 H       -15.5482071258      -10.9415851924       -5.7093630154
 H       -13.8462545325      -10.1394226346       -5.5017806835
 H       -13.9425276564      -10.6583887159       -0.4773232993
 H       -12.6296956379      -11.7417013891       -1.2426584057
 H       -14.2786937869      -12.1086233006       -1.6185286820
 H       -14.2728716790       -8.3861832263       -1.9127244399
 H       -13.5662034087       -8.3895412538       -3.5779936317
 H       -12.6234498625       -8.6525078682       -2.0201567305
 H       -10.6165878825      -12.7779561144       -8.5900563344
 H        -9.9496283150      -11.1443593622       -9.0071833061
 H       -11.5783956595      -11.3742442824       -8.3061720839
 H        -8.9957498887      -12.8006740632       -5.4341371731
 H        -8.1209646131      -12.6059680365       -6.9129826693
 H        -9.4677870665      -13.7657442869       -6.9194165465
 H        -7.3836223616       -5.2233487179       -4.4693918689
 H        -8.9435606277       -5.7035757645       -3.6967537225
 H        -9.0065408457       -4.2430274983       -4.7939803216
 H       -10.8699097642       -5.5251363335       -6.2354473382
 H       -10.6018028858       -6.5494379506       -4.9878983736
 H       -10.4154245743       -7.2063968560       -6.5785151116
 H        -5.2724900528       -8.9325429680      -11.8106888973
 H        -4.8703569046       -7.1283915425      -11.6055938633
 H        -6.1105774939       -7.7308718945      -12.6342710481
 H        -7.1399141030      -10.1821344117      -10.7179817067
 H        -8.0838421805       -9.1442896573      -11.7625868468
 H        -8.2677470699       -9.4468477774       -9.9449657419
 H        -0.0608852415      -10.2760559301       -6.4815583569
 H        -0.4423329524       -9.7216702084       -8.1733928126
 H        -1.0706931306      -11.3272905244       -7.3428294238
 H        -1.7718962151       -9.8076974438       -4.5796435415
 H        -2.0706243750      -11.2982697414       -5.4283500503
 H        -3.4621506517      -10.2971769338       -5.1192020958
 H        -1.4364706174       -4.0069563427       -4.3949936447
 H        -1.6061591637       -2.3343354001       -4.9774517570
 H        -0.5241384479       -3.4410027855       -5.8275408515
 H        -4.1920112820       -3.4163160005       -4.7495261156
 H        -3.8027706177       -5.1774556734       -4.9840725005
 H        -4.6940973289       -4.0987494692       -6.2419382615
 H        -1.7551742577        0.4299962504      -12.1075362038
 H        -3.1312562977        0.7301836249      -11.0573193052
 H        -2.1874755352       -0.7637110173      -10.9821817072
 H         0.7682189085        0.8146200014      -11.2368250204
 H         0.8625500482        0.2470038137       -9.4971235416
 H         0.9197445552        1.8759008729       -9.9705848766
 H        -0.7581510846        7.1991023849       -9.1057135208
 H        -2.4883400621        7.8314454653       -9.6346628542
 H        -1.0724315471        8.8337903288       -9.5550006484
 H        -2.9644021315        8.3004546584      -11.8533142979
 H        -2.0257265924        7.9256431927      -13.2782835521
 H        -1.6102048519        9.4203243421      -12.2042748907
 H         3.9615413892        4.1944005932       -9.8136628910
 H         4.6623810804        5.2875908994       -8.7362264065
 H         5.6689835033        4.5289680420      -10.0865299195
 H         6.4384834748        6.9289169185      -10.0081590386
 H         5.4524675813        8.2414195033      -10.2783219960
 H         6.1570624429        7.3479210276      -11.5485491244
 H         4.1730087647       -0.1693695503      -14.0609263259
 H         3.2700204703       -0.7113872354      -15.5164768298
 H         2.4130230126       -0.0794869901      -14.1681998480
 H         5.0489363896        2.4646506003      -16.5519586814
 H         5.4534670681        0.8018364504      -16.1868430040
 H         5.7909515152        1.9768012157      -15.0035881396
 H        -1.4029563268        4.8006251940      -19.7733517805
 H        -2.2169132099        5.0708640230      -18.2640495651
 H        -1.4651960774        3.4763052646      -18.6919601862
 H         1.1100535156        3.2080481480      -19.3114330465
 H         2.1506398875        4.3745640900      -18.6921386888
 H         1.0230359965        4.8932859279      -19.9593437937
 H         1.0785059554       11.4689131065      -17.7395550839
 H         2.7289364584       10.8792782264      -17.1539758397
 H         1.8423590215       11.9330033814      -16.1322533242
 H         1.4583855505        8.9585878879      -14.2471655374
 H         1.7479842551       10.7839191478      -14.2814066774
 H         2.8540536310        9.5707643492      -15.0687666577
 Na       -0.2482962134        6.9076672778      -14.5892576896
 Na       -5.1199284122       -5.1135906724       -8.7753598969
