232

 C        -0.9354434056       11.3962254072      -15.9240935734
 C         0.0505335529       10.3255652503      -15.5407080988
 O        -0.4202856235        9.4773980146      -14.8014417856
 C         1.4628848254       10.2499191974      -16.1595861176
 C         1.4885472997        8.7964375950      -16.7797357265
 O         1.7184430465        7.7777072985      -16.0925143760
 C         1.1348475197        8.7135030271      -18.2601192658
 C         0.8901945260        7.2279130878      -18.7689543374
 C        -0.0896392125        6.3837410994      -18.0439951162
 O        -0.8513538491        6.7585914920      -17.1597078339
 C         0.0819840150        4.8370926137      -18.3056351592
 C         0.1794085234        4.0692075798      -16.8762522295
 O         0.3185741837        4.5711155385      -15.7869308681
 C        -0.0560839292        2.6142335885      -16.7609965718
 C         0.8472038307        1.9530433351      -15.7724167911
 C         2.3862798895        1.8965203564      -16.1034196347
 O         2.7553338241        2.2319212668      -17.2267589947
 C         3.5641149420        1.5542126183      -15.0818543280
 C         3.3115065239        2.4571286125      -13.8083968486
 O         2.5866440480        1.9300008290      -12.9821505690
 C         3.8855663899        3.9161008623      -13.7153403253
 C         4.7291683804        4.2979248527      -12.4393965783
 C         4.8807607854        5.8707204203      -12.3051258261
 O         4.6649960970        6.6300304013      -13.2058847831
 C         4.8809805684        6.4790987043      -10.8424399129
 C         3.4626222901        6.8182399276      -10.6195862955
 O         2.6830509546        5.8888663241      -10.2727327368
 C         2.8823843633        8.1306706065      -11.0241156107
 C         1.4478336473        8.3804481026      -10.6590730657
 C         0.5097488747        7.8029498032      -11.6955326917
 O         0.7197308005        7.6431158461      -12.8883223196
 C        -1.0034698688        7.2450199958      -11.2831132664
 C        -1.1077685305        5.7730167363      -11.9316565126
 O        -1.1028018766        5.6438421715      -13.1066213715
 C        -1.0741970529        4.5898719978      -10.9084122083
 C        -1.5761369137        3.1717732826      -11.2853262996
 C        -1.6755563282        2.2201377535      -10.0532759857
 O        -2.1462089330        2.4760805217       -8.9771657919
 C        -1.2462559258        0.8086973821      -10.2243429379
 C        -1.3596892694        0.1599114560       -8.7644192722
 O        -0.4511288710        0.3109957221       -8.0089443659
 C        -2.7524618619       -0.5180674134       -8.3049124535
 C        -2.4678939587       -1.4568916490       -7.1341655262
 C        -3.2320636427       -2.7499412697       -7.0312989611
 O        -4.1015420150       -3.0070812564       -7.8408615170
 C        -2.9240968020       -3.8096223427       -5.9498505772
 C        -2.4415534495       -5.0368429324       -6.9141544713
 O        -3.2051968725       -5.5680406271       -7.7195070557
 C        -1.1801077892       -5.8188028424       -6.5950236098
 C        -1.1929780462       -7.3475996242       -7.0981751269
 C        -2.1532440963       -8.1634864911       -6.1976868323
 O        -2.7440574021       -7.7082227529       -5.2309749887
 C        -2.1920748786       -9.7301973318       -6.5630902102
 C        -3.1245831834       -9.7984534319       -7.8716473129
 O        -2.6830383412       -9.5759521052       -8.9730805494
 C        -4.6574057461       -9.9557414544       -7.6706027312
 C        -5.4878756209       -9.8034432175       -8.9759010673
 C        -5.7803602080       -8.3361053608       -9.3630809997
 O        -5.1788818338       -7.4447767157       -8.8932152597
 C        -6.8496587172       -8.0316120261      -10.5701893446
 C        -7.5207210810       -6.6971970869      -10.1440489272
 O        -6.8839530809       -5.6759948277      -10.3904303569
 C        -8.8656470108       -6.7283417652       -9.5079611463
 C        -9.0121633475       -5.6310553644       -8.4713926143
 C        -8.0870078460       -5.6554971442       -7.2003343430
 O        -6.8934765914       -5.4421427928       -7.2136321469
 C        -8.7994390294       -5.9448653281       -5.7851827407
 C        -7.9632798924       -7.4103637406       -5.3906862108
 O        -6.9525380097       -7.6555624640       -5.9016754586
 C        -8.8997172539       -8.3999026443       -4.6266501791
 C        -8.6362818542       -9.8357944346       -4.9783558928
 C        -9.0024992242      -10.1928666124       -6.4339657418
 O        -8.6453712276       -9.5291261331       -7.3905161960
 C        -9.8770399783      -11.5495196031       -6.6052965120
 C       -11.3404901873      -11.2728690609       -6.0759452191
 O       -11.7863388766      -10.0976295408       -6.1071669143
 C       -12.1965732989      -12.3482094512       -5.3835667810
 C       -11.9743764910      -12.5041762230       -3.8364816502
 C       -11.9935608397      -11.1222719664       -3.1984250574
 O       -10.9988619822      -10.3855080169       -3.0495941468
 C       -13.3424426052      -10.5783077849       -2.7140049080
 C       -14.5717299467      -11.1600877905       -3.5504086584
 O       -15.2679266932      -12.0249257611       -3.0473300562
 C       -14.7586774503      -10.4684479042       -4.8780350520
 C       -13.5532743906      -10.9657393481       -1.1624541841
 C       -13.2654580807       -9.0442693590       -2.8153078703
 C        -9.9959131981      -11.8764656161       -8.2330472453
 C        -9.1670643081      -12.7613115418       -5.9077898743
 C        -8.3797663834       -4.8040996291       -4.8335478822
 C       -10.2793860677       -6.1114285567       -5.7512427490
 C        -5.9871290932       -7.9130810920      -11.8788287027
 C        -7.8736838629       -9.1747620701      -10.7910000047
 C        -0.7563325781      -10.2964591417       -6.8052891267
 C        -2.7622308283      -10.4532863112       -5.3230304174
 C        -1.7755637447       -3.3422401523       -5.0348163130
 C        -4.2056602139       -4.2301993310       -5.1581627753
 C        -2.1967583950        0.1895559365      -11.2421208432
 C         0.3699791065        0.8056705966      -10.4937889227
 C        -1.1054041298        7.2862390604       -9.7295065011
 C        -2.0802011361        8.1862581723      -11.8955178604
 C         5.3635715731        5.4022800389       -9.8623246130
 C         5.8708355311        7.6919430111      -10.8364965209
 C         3.3432487169       -0.0077339130      -14.7872833075
 C         4.9096786590        1.8095105525      -15.7967143849
 C        -1.0656607836        4.2036439603      -19.0917931783
 C         1.5685413407        4.4766913384      -18.8900827123
 C         1.7337270063       11.4327183907      -17.1334788599
 C         2.4807746948       10.3364834855      -14.9970221982
 H        -1.8395536587       10.8475119311      -16.2525566724
 H        -0.6401508334       12.0239422085      -16.7354207568
 H        -1.2837544560       12.0261279023      -15.0963793330
 H         2.0957951647        9.0556171729      -18.8271860514
 H         0.2732485136        9.2748110925      -18.5953228961
 H         1.8168738023        6.6383542392      -18.7180230397
 H         0.6631084638        7.4015804155      -19.8224761992
 H         0.1666761735        2.0895337150      -17.6863414948
 H        -1.1423901037        2.5272425505      -16.6282841280
 H         0.4965341752        0.9020252491      -15.6433103730
 H         0.6858541475        2.3859468316      -14.7705999146
 H         3.0159835568        4.6066273064      -13.8487510128
 H         4.5111622604        4.0943560584      -14.6165107088
 H         5.7053751728        3.7014291462      -12.3485860908
 H         4.1518537500        3.8474252289      -11.6081744719
 H         2.9057099346        8.2725478221      -12.1623307995
 H         3.5142946952        8.9655782555      -10.6570644221
 H         1.2797001489        9.4616196330      -10.4874015050
 H         1.3040459284        7.9482078171       -9.7057207390
 H        -1.6772663179        4.6832240046       -9.9622900819
 H         0.0281003642        4.4553037025      -10.6598718373
 H        -0.9396875682        2.7273952371      -12.0680105159
 H        -2.5626628109        3.3150751434      -11.6643494296
 H        -3.1582849732       -1.0502546216       -9.1021666011
 H        -3.5466788223        0.3264502524       -8.1624579625
 H        -2.4792721374       -1.0325049079       -6.0173237941
 H        -1.4405323895       -1.6500774045       -7.1136360237
 H        -1.0927177462       -5.8087016688       -5.4961907346
 H        -0.3634273162       -5.2949267591       -7.1392546042
 H        -0.1106108058       -7.6568189609       -6.9544168993
 H        -1.3983820550       -7.2791293146       -8.1626921679
 H        -4.9672521090       -9.1829958581       -6.9904896460
 H        -4.7124588726      -10.9832010746       -7.3563658076
 H        -6.5855951258      -10.1706443913       -8.8359134495
 H        -5.0589421167      -10.3808923961       -9.7226086771
 H        -9.1379057530       -7.7393311722       -9.0882669072
 H        -9.5384185524       -6.4755307452      -10.2565875902
 H       -10.0032392884       -5.5701092006       -8.2354640038
 H        -8.7122356811       -4.6811573989       -8.9052871816
 H        -9.9060632970       -8.1603079575       -4.9486968797
 H        -8.8611478171       -8.1718743394       -3.6200864021
 H        -9.3141126685      -10.5119641242       -4.3804195724
 H        -7.5820247285      -10.1563432798       -4.8677487470
 H       -11.9416811809      -13.2650842417       -5.9266208013
 H       -13.2305672408      -11.9653367975       -5.5998327259
 H       -11.0241258434      -12.9742740870       -3.5575915164
 H       -12.7518249581      -13.0933518005       -3.4969982447
 H       -15.5184917001       -9.6398706204       -4.7066923341
 H       -15.1794448573      -11.2694924877       -5.4233792791
 H       -13.8391324045       -9.9696759752       -5.2482653032
 H       -13.4343049089      -10.1131029362       -0.5038562915
 H       -12.9110322544      -11.7642626312       -0.8710524295
 H       -14.5219277849      -11.3535570311       -1.0354906967
 H       -14.2122983357       -8.6134242107       -2.4208974512
 H       -13.0122436807       -8.6641076618       -3.8028946040
 H       -12.4820741110       -8.7340211171       -2.1708366967
 H       -11.0227700688      -12.1666575795       -8.5679849722
 H        -9.3780321067      -12.7756962744       -8.4313983752
 H        -9.7065636961      -11.0550394862       -8.8033836275
 H        -8.6342409856      -12.4173427965       -4.9977953612
 H        -8.4561168133      -13.0516204665       -6.5956298298
 H        -9.7715784194      -13.6505933657       -5.7850198590
 H        -7.3314918559       -4.6791587050       -4.7578257010
 H        -8.8358576304       -5.0247087890       -3.8936190768
 H        -8.8540449866       -3.9297061180       -5.3044891973
 H       -10.7850622991       -5.1737437097       -6.0060466029
 H       -10.4617051952       -6.3869224022       -4.6383619505
 H       -10.7577404881       -6.8182676359       -6.4321160664
 H        -5.6022048012       -8.9077655683      -12.1148680385
 H        -5.2409391917       -7.1215690615      -11.9754349655
 H        -6.6930468850       -7.8005188952      -12.6552097297
 H        -7.5286496775       -9.9920159557      -11.4489168566
 H        -8.6764722151       -8.8148375558      -11.3744396883
 H        -8.2553852781       -9.6749400799       -9.8477195374
 H        -0.1554669633       -9.8983594855       -5.9931070756
 H        -0.3624562936       -9.9601181524       -7.7611609908
 H        -0.7730561434      -11.3695338627       -6.9723800942
 H        -2.0373368621      -10.6324442150       -4.5797598912
 H        -3.3694332160      -11.3037655944       -5.5690114926
 H        -3.4656248923       -9.6813054836       -4.9329465551
 H        -1.6900571918       -3.8979563640       -4.1136382804
 H        -1.9533956982       -2.3437482547       -4.6274755146
 H        -0.8116072260       -3.2446774210       -5.4931535211
 H        -4.6280132301       -3.2841529659       -4.9365013050
 H        -3.9467310801       -4.7511112611       -4.2403070481
 H        -4.8753103948       -4.8277363390       -5.7473948382
 H        -1.9835286483        0.4838003213      -12.2656731941
 H        -3.2005488847        0.5870638196      -10.9453397662
 H        -2.2941659052       -0.8533705343      -11.2879193710
 H         0.8902366809        1.5856378896       -9.9175919036
 H         0.6787914257        0.8794375305      -11.5981207724
 H         0.8625353267       -0.1073548928      -10.0840273688
 H        -0.4180952348        6.5216459586       -9.2244413870
 H        -2.1051880633        7.0270606242       -9.3612340598
 H        -0.8561439060        8.2170556693       -9.3862197378
 H        -3.0506230218        7.8609508459      -11.6956519023
 H        -1.9981024869        8.1547049841      -12.9703261023
 H        -2.0134398771        9.2065771039      -11.4341665777
 H         4.4391175800        4.7654617858       -9.7943622443
 H         5.4914279787        5.7447424551       -8.8108385782
 H         6.2584753526        4.8931795584      -10.2050758002
 H         6.6370516525        7.6420075729      -11.6791292999
 H         6.4360229532        7.7932134846       -9.9921572348
 H         5.3795445572        8.6076492416      -11.0380896677
 H         4.1280740427       -0.3244429556      -14.0931876629
 H         3.3937835352       -0.5602474885      -15.6508428209
 H         2.4137610911       -0.1639173328      -14.2218641806
 H         5.0473982298        2.8427149107      -15.5857507867
 H         4.7265986331        1.5958625261      -16.9032537208
 H         5.8292570917        1.3909737615      -15.5475010233
 H        -1.1176540736        4.6378506933      -20.1110495691
 H        -1.9518346858        4.5037433515      -18.5728989363
 H        -0.9335789824        3.1560167487      -19.1706736502
 H         1.6327314466        3.4383559353      -19.2244591127
 H         2.3414595417        4.6966810553      -18.1014744988
 H         1.8201987995        5.0688338260      -19.7820966909
 H         0.9179114434       11.4448409688      -17.8638996758
 H         2.7307925032       11.4227790612      -17.5599902511
 H         1.4408572010       12.2579791721      -16.5001125984
 H         2.3529488289        9.5307731761      -14.2264362211
 H         2.2705750098       11.2645695016      -14.6014730040
 H         3.4968758461       10.1707232360      -15.3405614124
 Na       -0.2458041175        6.8381357949      -14.8842103855
 Na       -5.2237939023       -5.0573579154       -8.5834831271
