232

 C        -1.0109758390       11.4651427365      -15.8489375846
 C         0.0250734275       10.3501138414      -15.5039580948
 O        -0.2516757791        9.3688335107      -14.7853370953
 C         1.4568997345       10.3782636630      -16.1133976754
 C         1.5466212968        8.9636454633      -16.8275981625
 O         1.7970730068        7.9670356640      -16.1711865382
 C         0.9916145776        8.8987082913      -18.2562604581
 C         0.9339692528        7.2968756850      -18.7341657707
 C         0.0647145342        6.3576069473      -17.8506798741
 O        -0.9463644428        6.6680359684      -17.2359301405
 C         0.2434686563        4.7674050484      -18.2171392097
 C         0.2256596789        4.0239646847      -16.8366955073
 O         0.4147312796        4.6677727970      -15.8477979268
 C         0.0276220704        2.3513745207      -16.8027000461
 C         0.9743724922        1.7734387144      -15.7312626918
 C         2.3571001407        2.0111760667      -16.2284963867
 O         2.5670617634        2.3155128695      -17.3592611059
 C         3.5081590513        1.6499127163      -15.1168268687
 C         3.3357964207        2.4129394922      -13.7312806551
 O         2.5008256474        2.0684497153      -12.9082531626
 C         3.9130944612        3.8034747758      -13.6741004774
 C         4.7997192077        4.3606537457      -12.4262237170
 C         4.7614358879        5.8697247439      -12.4217262135
 O         4.6879601543        6.6004421233      -13.4118565852
 C         5.0140170039        6.3997877127      -10.9328041231
 C         3.4410600286        6.7510685844      -10.6032106866
 O         2.7195078339        5.8798708191      -10.2503430523
 C         2.8936813257        8.1698851050      -11.0041334524
 C         1.3762370206        8.3126258789      -10.7449769107
 C         0.4040656093        7.7363161394      -11.7177290074
 O         0.7417579558        7.7811771227      -12.9011601039
 C        -1.0056587836        7.1951333532      -11.2997477593
 C        -1.0876282980        5.6764157112      -11.9057657697
 O        -1.1100383869        5.5246089668      -13.1610710474
 C        -1.0741085703        4.6043980695      -10.9276491770
 C        -1.6746922919        3.2067690407      -11.3395024490
 C        -1.7880635351        2.2533877730      -10.0557681789
 O        -2.2885047469        2.7315009151       -9.0813858858
 C        -1.3688983932        0.7216069726      -10.2346116759
 C        -1.4173414895        0.0882384389       -8.8501779674
 O        -0.4753657550        0.0892596666       -8.0793532148
 C        -2.6432015688       -0.7334808386       -8.4387436744
 C        -2.3671065230       -1.4221901025       -7.0399215703
 C        -3.2408786027       -2.7817135422       -7.0143000439
 O        -4.1722392219       -2.9049491878       -7.8201632310
 C        -2.9436015060       -3.8670322479       -5.9576690793
 C        -2.5433952048       -5.2398322744       -6.6929245915
 O        -3.1049759052       -5.5475960981       -7.6852358616
 C        -1.1535661974       -5.9021338544       -6.3479601707
 C        -1.2111586200       -7.2950748878       -7.0311442350
 C        -2.0801338029       -8.2356974858       -6.2355111113
 O        -2.8293938025       -7.7458215236       -5.4038786086
 C        -2.2601625900       -9.7360418439       -6.5134798320
 C        -3.1523834165       -9.7705518542       -7.7895356458
 O        -2.6124371170       -9.6874219125       -8.8874434590
 C        -4.6775688913       -9.8955395183       -7.5899878031
 C        -5.4077893557       -9.8095897241       -8.9913248945
 C        -5.7912172003       -8.3693190588       -9.4067151592
 O        -5.2362934604       -7.4137852904       -8.9133013634
 C        -6.8240905987       -8.0857991818      -10.6861846501
 C        -7.4894163852       -6.6933802449      -10.2057843602
 O        -6.9355461049       -5.6374565706      -10.2679332027
 C        -8.9231434941       -6.6839911605       -9.4030108980
 C        -9.1000108568       -5.4388648969       -8.4359684564
 C        -8.2221848687       -5.6014084346       -7.2078472790
 O        -7.0046885447       -5.3578315244       -7.2313934089
 C        -8.7923260244       -5.9531239519       -5.7797776188
 C        -8.1293475111       -7.3673687823       -5.5062600984
 O        -6.9692381214       -7.6911305420       -5.8649510213
 C        -8.9682887063       -8.4300610640       -4.7023951014
 C        -8.6821749682       -9.9153072143       -4.8524837790
 C        -8.8978503693      -10.3069301793       -6.3415379125
 O        -8.6013068386       -9.5495442616       -7.2688386536
 C        -9.7440817768      -11.5508739511       -6.5512397472
 C       -11.1913227895      -11.2150725565       -6.0236055393
 O       -11.7489822584      -10.1296713172       -6.1597918297
 C       -12.1045865734      -12.4288930194       -5.4942309180
 C       -12.0905322470      -12.4462551617       -3.9519478802
 C       -12.0055151209      -11.0682203334       -3.1630441815
 O       -10.9441242152      -10.5377865029       -3.0169032696
 C       -13.3590663320      -10.4227588527       -2.5826499980
 C       -14.5210023696      -11.1338821273       -3.4871875304
 O       -15.0256892280      -12.1829105711       -3.1135594393
 C       -14.9021098008      -10.5020350147       -4.8613830917
 C       -13.3929790144      -11.0005082680       -1.1598861112
 C       -13.3210091079       -8.9016610837       -2.7614693891
 C        -9.9713768177      -11.8002239395       -8.1092859392
 C        -9.1808825294      -12.7156108239       -5.7914173269
 C        -8.3551541819       -4.7607787751       -4.8344131050
 C       -10.3147890756       -5.9657210198       -5.7109653769
 C        -6.0387481446       -7.9169842476      -11.9563490925
 C        -7.8510156833       -9.1783357905      -10.7571928371
 C        -0.8446882600      -10.3190374385       -6.8238857313
 C        -2.9599133653      -10.4685969775       -5.2693425893
 C        -1.8339438456       -3.3567768048       -4.9902154042
 C        -4.3170727239       -4.1796378740       -5.3012002585
 C        -2.1050271636       -0.0834831574      -11.2662240078
 C         0.1824672957        0.6652974723      -10.5511168860
 C        -1.0355039198        7.2606247676       -9.7733422791
 C        -2.0924742120        8.1723768979      -11.8464683099
 C         5.6006025087        5.4353294323       -9.8600431518
 C         6.0082308321        7.6950166031      -10.9535484651
 C         3.3233725701        0.2090565653      -14.6429022528
 C         4.9136807700        1.8127610637      -15.7534766604
 C        -0.9432835374        4.3421634621      -19.1094863044
 C         1.4907207521        4.4546732693      -19.0365379982
 C         1.8377299459       11.4115394100      -17.2077536534
 C         2.5422826527       10.3661108348      -14.9589892334
 H        -1.9802473049       11.2076762953      -16.2042478824
 H        -0.6154043192       12.2281204122      -16.5443728357
 H        -1.1082253515       12.0073172843      -14.8776323697
 H         1.7005591412        9.3634157101      -19.0143876177
 H         0.0722616212        9.3798793692      -18.3144082356
 H         1.9593017743        6.8945770112      -18.7320780584
 H         0.5886160642        7.3316648104      -19.7344826186
 H         0.0792650422        1.7958424714      -17.7160464394
 H        -1.0230916632        2.2809023542      -16.5108192306
 H         0.9443932821        0.6676634637      -15.5593510437
 H         0.6775536938        2.1857212281      -14.7665308840
 H         2.9596466165        4.3380174185      -13.6572757381
 H         4.3765931546        4.0743143367      -14.6219711715
 H         5.9034475342        4.0252196541      -12.4523978227
 H         4.4370351535        3.8367156699      -11.5215385000
 H         3.0693270989        8.2255488436      -12.1280902681
 H         3.4433310307        9.0623835663      -10.6397670088
 H         1.1688860977        9.4335493700      -10.7273679468
 H         1.2888763727        8.0958828710       -9.7420810367
 H        -1.7316268421        4.7995745068      -10.0703781639
 H        -0.0664200061        4.4645634482      -10.5922024032
 H        -1.0605518271        2.7608264409      -12.0338392241
 H        -2.6966686686        3.4020410026      -11.7876770407
 H        -3.0084342120       -1.4952954052       -9.2339242778
 H        -3.4719318013       -0.0230454552       -8.4127860446
 H        -2.4783991580       -0.8560818460       -6.2064355464
 H        -1.3182767596       -1.6102478848       -6.9589006031
 H        -1.1616307707       -6.1072907737       -5.2532283969
 H        -0.3961263724       -5.2408969719       -6.7003508133
 H        -0.2174429544       -7.6354786640       -7.2104546968
 H        -1.6878275956       -7.0526213806       -8.0397220446
 H        -4.8931883674       -9.0387847012       -7.0483478617
 H        -4.8334277509      -10.7695925658       -7.1431755209
 H        -6.2671548788      -10.4661747823       -9.1340697859
 H        -4.6385637759      -10.1356230350       -9.7326658582
 H        -9.1651124992       -7.5194382736       -8.8547940260
 H        -9.6720716939       -6.5347142785      -10.1597593634
 H       -10.1511500069       -5.4829409623       -8.1786460099
 H        -8.8621801275       -4.4930776090       -8.8275576585
 H       -10.0015882549       -8.1863108166       -4.6905906362
 H        -8.5294537790       -8.1037857123       -3.7413794393
 H        -9.3290115249      -10.5554838677       -4.2787335693
 H        -7.6577329682      -10.0811513599       -4.5783022304
 H       -11.6609129699      -13.2921367608       -5.9284498492
 H       -13.1047962655      -12.2117045764       -5.8225954932
 H       -11.2764412295      -12.9119446498       -3.4308802132
 H       -12.9863935034      -13.0275960052       -3.7327895177
 H       -15.4230892496       -9.5348828429       -4.6580744224
 H       -15.5117054298      -11.2741951029       -5.2869362092
 H       -13.9950571620      -10.2456058883       -5.4206271665
 H       -13.0827407356      -10.3442998166       -0.3572342662
 H       -12.8254935486      -11.9474882670       -1.1405953970
 H       -14.4725551881      -11.3533660386       -0.9406170666
 H       -14.0402320028       -8.3398932196       -2.1057485208
 H       -13.3824202384       -8.5784993333       -3.8222477411
 H       -12.2664925828       -8.6420378536       -2.5354405491
 H       -11.0542750352      -11.8536437551       -8.4098818988
 H        -9.6052340790      -12.7869999409       -8.3427831042
 H        -9.5138952715      -11.0409405932       -8.6775320107
 H        -8.6473225009      -12.3695580704       -4.8902377578
 H        -8.5371586950      -13.3288165736       -6.4046873435
 H        -9.9375575112      -13.4014959071       -5.5655710750
 H        -7.2414497604       -4.6457171613       -4.7045435981
 H        -8.8768231612       -4.9671527115       -3.8757464845
 H        -8.7473045617       -3.9140485461       -5.3658316766
 H       -10.7874123473       -5.2639085401       -6.3645315274
 H       -10.6126498477       -5.8955223219       -4.7124238537
 H       -10.6800012521       -6.8887637390       -6.0994187195
 H        -5.4214623828       -8.8032650914      -12.2113842667
 H        -5.3865260133       -7.0513706766      -11.7750745774
 H        -6.6480643200       -7.7505514809      -12.8331395538
 H        -7.4710781352      -10.1918673304      -11.2006620750
 H        -8.5594383300       -8.9143457278      -11.5167186456
 H        -8.4081895840       -9.3808818440       -9.8245804539
 H        -0.1153795903      -10.0066938412       -6.0579912136
 H        -0.5298678935       -9.9256185650       -7.8417737665
 H        -0.9295766274      -11.3146351351       -7.1410748077
 H        -2.2380443023      -10.9866669063       -4.6600080947
 H        -3.7459090405      -11.0986709642       -5.6374753275
 H        -3.4469452188       -9.7026095433       -4.6375270237
 H        -1.6775540582       -3.9652052560       -4.0972140024
 H        -2.0746245221       -2.3808901230       -4.5553554129
 H        -0.8212703962       -3.1928058335       -5.4356750201
 H        -4.7089840382       -3.2235185371       -4.9987217094
 H        -4.0664872114       -4.7852077274       -4.4385055520
 H        -4.9968578302       -4.8232867982       -5.9396302239
 H        -1.6676737003       -0.0445232041      -12.2825137962
 H        -3.1834643045        0.1849730113      -11.2722225531
 H        -2.1304596121       -1.1504775578      -11.0063575657
 H         0.8059779838        0.9801820986       -9.6981362978
 H         0.4179160691        1.3246169603      -11.4176618267
 H         0.5871856745       -0.3682778312      -10.7804092851
 H        -0.3471456022        6.5117097747       -9.3861722752
 H        -1.9907007648        6.9324706595       -9.3214210687
 H        -0.7600449484        8.2904288281       -9.3829801368
 H        -3.1019796717        7.7295188852      -11.9008568813
 H        -1.8268299088        8.3487111561      -12.8993453548
 H        -2.1922146630        9.0718134128      -11.2328616226
 H         4.8205278239        4.6196462636       -9.7393197600
 H         5.6239051269        5.9196380114       -8.8602268316
 H         6.5992041781        5.1225444608      -10.0588138547
 H         6.7175191067        7.5909502734      -11.7375889626
 H         6.5768997535        7.8984831349      -10.0787300115
 H         5.4113096752        8.5776630602      -11.2187112021
 H         4.1954637836       -0.0130834788      -14.0594484530
 H         3.2908338133       -0.5455629127      -15.4526650622
 H         2.5104437502        0.1509167856      -13.9310494249
 H         5.3028895752        2.7414294903      -15.4873559442
 H         4.7952132568        1.5799473289      -16.7853441468
 H         5.7826780618        1.1759623364      -15.3748163479
 H        -0.8452163503        4.8290620641      -20.0453178018
 H        -1.7585909832        4.7587130308      -18.6030953787
 H        -1.0723511535        3.2037246586      -19.2816975202
 H         1.6163804480        3.4130963350      -19.1384709902
 H         2.4200940165        4.9559024674      -18.6664832915
 H         1.3123840803        4.7767999587      -20.0680658038
 H         1.0270424733       11.3703843817      -17.9025122363
 H         2.7831767518       11.1228997939      -17.6906822788
 H         1.7597750755       12.3869508756      -16.7434504439
 H         2.2641210737        9.6674565960      -14.1662180955
 H         2.5583835455       11.3786066291      -14.5524424153
 H         3.5050193664        9.9764194370      -15.3021981883
 Na       -0.2161256178        6.7587051385      -14.8681102734
 Na       -5.2755926921       -4.9300225882       -8.6409879152
