232

 C       -21.1714306367       -7.0495913195       -1.5346788126
 C       -20.5812633540       -5.9932212287       -2.4411917772
 O       -19.7184525232       -5.2545416634       -2.0806690664
 C       -21.3355422212       -5.8422396640       -3.9292249029
 C       -20.1659265250       -5.1838702943       -4.7319517622
 O       -19.8711497867       -4.0467821003       -4.4012880256
 C       -19.2537827975       -6.0044080852       -5.6834627744
 C       -18.0450669810       -5.1734008216       -6.1532701759
 C       -17.2981279720       -4.4199463471       -5.0106072406
 O       -17.2562072777       -4.9174636133       -3.8933092807
 C       -16.5097160412       -3.0755195525       -5.4261661580
 C       -16.3639969220       -2.1139372059       -4.2628517288
 O       -17.2503308363       -1.3645310650       -3.9120976549
 C       -15.1474172782       -2.2927708693       -3.4044795984
 C       -15.3188161117       -1.7312319310       -1.9383424948
 C       -15.9274930440       -2.7670761133       -1.0068281742
 O       -16.9330928298       -3.3814419904       -1.3142083740
 C       -15.1143539699       -3.3305586220        0.1747179369
 C       -13.9047749486       -4.4266888574       -0.4962889435
 O       -12.7259724630       -4.1068768134       -0.5564532175
 C       -14.5278290957       -5.7775144249       -0.9490408483
 C       -13.5009034354       -6.7239890037       -1.5114706715
 C       -12.9835434219       -6.3166698528       -2.9012988420
 O       -13.2737840164       -5.2805504745       -3.4510111761
 C       -11.9429381785       -7.1796721745       -3.7119939668
 C       -10.6059177712       -6.7805785091       -2.8980616285
 O       -10.6537539021       -6.5351380772       -1.7257447687
 C        -9.2744472166       -6.8388700310       -3.6123495033
 C        -8.3704390803       -5.8574235806       -2.8318096411
 C        -8.0325353609       -4.6847384940       -3.8132382571
 O        -8.8170953450       -4.1581032993       -4.5670075337
 C        -6.6208962242       -3.9901913406       -3.6666906639
 C        -5.4371125795       -5.0404961271       -3.4422026268
 O        -5.1274922271       -5.5668900085       -2.3918908188
 C        -4.5742334515       -5.4646301563       -4.7047574093
 C        -3.1360049050       -5.9578550389       -4.4703039274
 C        -2.1256102576       -4.7768673812       -4.5715105509
 O        -2.4306320154       -3.7064128612       -5.0234841538
 C        -0.5882117758       -5.0945098728       -4.2671840279
 C        -0.1415911429       -5.4067826642       -5.6631511844
 O        -0.2164781096       -6.5418264794       -6.0798950692
 C         0.1782122676       -4.1997751673       -6.5525751341
 C         0.6978540789       -4.5638606373       -7.9028763642
 C         0.8151462084       -3.3793817543       -8.9179758444
 O         0.7690067976       -2.2126508350       -8.6172172084
 C         0.6046298064       -3.7992373858      -10.4328925780
 C         1.1928707660       -2.7304403525      -11.4843432293
 O         0.5231043765       -2.0472839853      -12.1709802499
 C         2.7697390129       -2.4935922489      -11.4121374990
 C         3.1837227386       -1.8993499451      -12.8415803211
 C         4.7364949494       -1.4321586834      -12.8930990270
 O         5.2760682271       -0.9189305895      -11.9178285806
 C         5.5360576543       -1.6382501476      -14.1643929126
 C         6.1915474227       -0.2046571541      -14.6558537405
 O         6.1316044250        0.1257033142      -15.8204427517
 C         6.8457035064        0.7869866078      -13.5617632811
 C         8.2303490016        1.4305723010      -13.8838476064
 C         8.2669755725        2.3491362496      -15.2070547070
 O         8.2670446465        1.7985770396      -16.2672073705
 C         8.3560701093        3.8306796368      -15.1508415880
 C         6.9498500475        4.4227798835      -14.8624928893
 O         6.2848135002        3.9727727580      -14.0000263123
 C         6.3857262321        5.6332284245      -15.7291690218
 C         4.9255625987        5.3695702491      -16.1333877183
 C         4.8448893840        4.4273861034      -17.2848074139
 O         5.7190645278        3.5375095033      -17.2424460739
 C         4.0369671631        4.6682984124      -18.5231728128
 C         4.9195469716        5.7155727503      -19.4916282270
 O         4.9142253689        6.8959981722      -19.2844030473
 C         5.7255615453        5.0647876858      -20.6148874003
 C         6.6996347678        6.1301277555      -21.1848080852
 C         7.5663974654        5.5942279182      -22.3987237420
 O         7.0053371438        5.5019695999      -23.5178453942
 C         9.1858738541        5.2146834155      -22.2718335901
 C         9.2169436050        3.7304534156      -21.8373103752
 O         8.2102262073        3.0605556126      -21.7121657580
 C        10.6168501388        3.1479717772      -21.3571946637
 C        10.4477418697        1.5813755094      -20.8840274970
 C         9.0898383541        1.2716401591      -20.2636392811
 O         8.8480023815        1.7030711939      -19.1564252289
 C         8.1028411388        0.2611545290      -20.9876085410
 C         6.7753683239        1.0233419439      -21.2672179002
 O         6.1050250500        1.4757285125      -20.3233471971
 C         6.0398966437        1.1843763736      -22.5913197828
 C         8.5802810892       -0.4142428915      -22.2461189801
 C         7.8878981594       -0.9199817332      -19.9334398299
 C         9.8702187430        5.4539951669      -23.6449849063
 C         9.7770656213        6.0631353080      -21.1631496110
 C         3.7138307356        3.3349647950      -19.1671660200
 C         2.6448721032        5.3745002668      -18.1727376315
 C         9.3040190440        4.1903150923      -13.9547068429
 C         8.9140461950        4.3901727402      -16.4879814297
 C         6.7047733497       -2.6802870614      -13.8932412486
 C         4.5536915438       -2.0347695560      -15.3875370712
 C         1.2562897528       -5.1602887203      -10.7714371781
 C        -0.9475983985       -3.8069995410      -10.6216837893
 C         0.1190521467       -3.9270232680       -3.5980405790
 C        -0.4988916131       -6.3173226516       -3.3150978798
 C        -6.4262449539       -3.0108753706       -4.8447185043
 C        -6.6785369591       -3.2189276760       -2.2262012646
 C       -12.1514693440       -8.6904028067       -3.4855558286
 C       -11.9985867585       -6.9135967211       -5.1942050226
 C       -14.3878438408       -2.2388833395        1.1302061379
 C       -16.0560969507       -4.1310559529        1.0695952783
 C       -15.1797065712       -3.5654792541       -6.0674405775
 C       -17.3500312433       -2.3736788682       -6.5945112934
 C       -21.8268964335       -7.2255378591       -4.5377856709
 C       -22.4910484982       -4.8577034645       -3.7450216533
 H       -22.0443656927       -7.4523072211       -2.0047977999
 H       -21.3065935515       -6.6077213425       -0.5592697614
 H       -20.4453170656       -7.7636097255       -1.3774930389
 H       -19.8484567528       -6.2983586501       -6.5778000000
 H       -19.0756363802       -6.9514913373       -5.1317118312
 H       -18.4221959075       -4.4998201748       -6.9211718985
 H       -17.3131888109       -5.9246588139       -6.5396444671
 H       -14.1517609199       -1.9231111098       -3.7716976660
 H       -15.0044293549       -3.4049017163       -3.2801213937
 H       -15.9824600448       -0.9157036816       -2.0072153104
 H       -14.3070670022       -1.3514409320       -1.5505478688
 H       -15.2709096865       -5.5502576724       -1.7248391056
 H       -14.9537518652       -6.2994751245       -0.0691031028
 H       -13.9179585313       -7.7397730608       -1.6766645910
 H       -12.6999156953       -6.9185690278       -0.8119727041
 H        -9.4556910965       -6.5417963945       -4.6830878688
 H        -8.8098818695       -7.9035856117       -3.6040671164
 H        -7.4624510947       -6.3253868483       -2.5903811446
 H        -8.7709779633       -5.3915697438       -1.9478463128
 H        -4.3794017059       -4.5437538515       -5.3153263847
 H        -5.1300015084       -6.1892639611       -5.3471915889
 H        -2.7268570037       -6.7314145511       -5.1928262880
 H        -2.9611610037       -6.5481794726       -3.5451371405
 H         0.8910246130       -3.5523145818       -6.0175795663
 H        -0.6985449273       -3.5133521915       -6.6851254344
 H        -0.1301541492       -5.1842806872       -8.3006215047
 H         1.5369289554       -5.2906415011       -7.8006118574
 H         3.2703058433       -3.3876278269      -10.9825088566
 H         2.8311664498       -1.6512876823      -10.6828228305
 H         2.5276243203       -1.0706185639      -12.9820581728
 H         3.0408436641       -2.6180037627      -13.6976080649
 H         6.9667313127        0.1674322223      -12.6309889302
 H         6.2348922447        1.6526658796      -13.3395683590
 H         8.9511956016        0.5903440929      -13.9746334624
 H         8.6104151344        2.1222738741      -13.1527856555
 H         6.9601599383        5.9942899897      -16.7018890967
 H         6.5730153345        6.4650640983      -14.9349973911
 H         4.3290714493        6.3038148311      -16.3742087840
 H         4.3461630501        4.7509705930      -15.3597197686
 H         4.9143471203        4.6481817669      -21.2683342142
 H         6.2183603185        4.1593305355      -20.2056987264
 H         7.4576212760        6.2651065478      -20.3454210386
 H         6.0038100184        6.9197926287      -21.3362334970
 H        10.6902858193        3.8182545121      -20.5071647033
 H        11.3732999635        3.3159135552      -22.1367357073
 H        11.1916729269        1.3903587305      -20.0581889649
 H        10.7206788046        1.0389220717      -21.7329401126
 H         5.8005436719        0.1963757295      -22.9878667235
 H         6.4546949893        1.7788173307      -23.3703037973
 H         5.0469762703        1.5301971296      -22.3353218757
 H         7.8007918703       -1.1980641212      -22.4731639223
 H         9.4216915748       -1.1211945877      -22.1458811449
 H         8.7608867726        0.1859282057      -23.1058849617
 H         7.0645853488       -1.5140508264      -20.3116759769
 H         7.5860624789       -0.4858898197      -19.0259647960
 H         8.7860375836       -1.5380766660      -19.8683369781
 H         9.7297772927        6.4777542269      -24.0482652329
 H         9.5358152153        4.5871808304      -24.2425501049
 H        11.0031290088        5.3801044824      -23.6075208831
 H        10.8800180552        6.1327299600      -21.1294933928
 H         9.4637345785        5.6503134636      -20.2138919296
 H         9.5171328900        7.0885839502      -21.3341952336
 H         2.8100930746        2.9490479045      -18.7674432177
 H         4.5553952297        2.5456724936      -19.1082224654
 H         3.5287401180        3.5571699567      -20.2412945767
 H         2.7303869224        6.4456318420      -17.8365262488
 H         2.0218195216        4.8946339561      -17.4488916885
 H         2.0972122469        5.4837666713      -19.1422516107
 H         9.7546040414        5.1630812707      -14.1791958347
 H        10.1668367132        3.4522245517      -13.9072033107
 H         8.8762728924        4.1841002727      -12.9645133924
 H         9.8682710595        3.8949542806      -16.6473352802
 H         9.2366179552        5.4408699308      -16.4017353829
 H         8.4235704920        4.1850098493      -17.4183634536
 H         6.3325315372       -3.3044358086      -13.1570318980
 H         7.5409921702       -2.2029442159      -13.5987146126
 H         6.9369989993       -3.1734540148      -14.8240505085
 H         4.0608019761       -2.8805985522      -15.1294903625
 H         5.0201041436       -2.1737556947      -16.3644492310
 H         3.9499562999       -1.1832809063      -15.4912858287
 H         0.7983908534       -5.9450455190      -10.2099210122
 H         2.3436123416       -5.1209776566      -10.6099257956
 H         1.1286350120       -5.2991697094      -11.8057735209
 H        -1.5550704765       -3.0733055022      -10.0937025177
 H        -1.2730477548       -4.8216368594      -10.2879766343
 H        -1.2300243029       -3.8574553878      -11.6380776907
 H        -0.2154092858       -3.9881838486       -2.5837258074
 H        -0.3397368649       -3.0036880278       -3.8732724851
 H         1.1738238629       -3.9965607872       -3.7088195746
 H        -0.6007431146       -7.2120358832       -3.8838470940
 H        -1.3344607806       -6.2559035418       -2.5976570099
 H         0.3518717863       -6.4396907400       -2.6689631931
 H        -6.2676748798       -3.6451674487       -5.7103230645
 H        -5.6105443299       -2.3292269559       -4.7134025982
 H        -7.3752933948       -2.4801480168       -4.9437612549
 H        -5.9296372416       -3.6045033201       -1.6066578989
 H        -7.6661100289       -3.4806496337       -1.8398885274
 H        -6.6164648177       -2.1213301339       -2.3355356376
 H       -13.0928862020       -9.0800789089       -3.9527168004
 H       -12.3205497608       -8.8915722079       -2.4399686438
 H       -11.3038432888       -9.2897836263       -3.7616343833
 H       -12.9774675055       -7.1520552179       -5.4299458199
 H       -11.2078992586       -7.4458342118       -5.7494648242
 H       -11.9660624866       -5.8709693222       -5.5571993013
 H       -13.5259122592       -2.7863967084        1.5745659250
 H       -15.0373147752       -1.9347471569        1.9159873530
 H       -13.9472529509       -1.4188404400        0.6389072309
 H       -15.4811490215       -4.6437834032        1.7976064866
 H       -16.5905943077       -4.8869805795        0.5774183447
 H       -16.7373288371       -3.5303815862        1.6244241443
 H       -14.8061421622       -2.8209742079       -6.7286656565
 H       -15.2066960869       -4.5502755161       -6.4586934071
 H       -14.3929075123       -3.4915867920       -5.2549866734
 H       -18.4084948316       -2.0383954665       -6.2392949078
 H       -17.3339805842       -2.9539227689       -7.4529764430
 H       -16.9401298908       -1.4076157576       -6.7957209368
 H       -21.0322278178       -7.9377251940       -4.5908770766
 H       -22.1596581785       -7.0770923439       -5.4824797264
 H       -22.6914565310       -7.6259514594       -3.9315389874
 H       -22.1861237193       -3.8521809196       -3.3932496277
 H       -23.1328815592       -5.2230315841       -2.9551943192
 H       -23.1233763966       -4.5955101221       -4.6767348485
 Na      -18.6651995462       -3.0620425448       -2.7348015315
 Na        6.6058330649        1.5336530235      -17.8304416988
