232

 C        -0.7320719349       11.8089401693      -15.4470442669
 C        -0.0241849998       10.4444688369      -15.4831528845
 O        -0.4988345756        9.4275529116      -15.0028044690
 C         1.4679157523       10.3497340059      -16.0984772284
 C         1.4885048772        9.0066294129      -16.8187670535
 O         2.0167269105        7.9970630235      -16.3199092310
 C         0.7336465348        8.7809961326      -18.1066573979
 C         0.9714114262        7.3558824144      -18.7329828783
 C         0.2259648467        6.3288052247      -17.9287205661
 O        -0.5717379697        6.7366513906      -17.1014024289
 C         0.2482508000        4.7808903246      -18.2428382948
 C         0.3015340428        4.1050803647      -16.8728186350
 O         0.6685205341        4.6856348631      -15.8899400098
 C         0.1306405092        2.5374549855      -16.9672189473
 C         0.9837674074        1.7500808807      -15.9892368750
 C         2.4825966095        2.0336301292      -16.2090343934
 O         2.8818219644        2.6186097164      -17.1891894899
 C         3.4681178347        1.5188103868      -15.0284416940
 C         3.1218144675        2.6502781101      -13.8391428723
 O         2.4865630090        2.3411280545      -12.8578145448
 C         3.7731631861        4.0544015331      -14.0257798480
 C         4.5149098041        4.4346012225      -12.7315274742
 C         4.8875562295        5.8760884535      -12.6065434902
 O         4.9719713246        6.5192432349      -13.6165880870
 C         5.1304612860        6.5391391850      -11.1166062058
 C         3.6780166521        6.8019399627      -10.6953128111
 O         3.0588881390        5.9987325422      -10.0195288173
 C         3.0141775637        8.1573124256      -11.0876479917
 C         1.5586167170        8.1684075645      -10.6277832705
 C         0.5988278450        7.5564112584      -11.6248539042
 O         0.9492927840        7.5519676438      -12.8390929082
 C        -0.8804028222        7.0181246867      -11.2966201504
 C        -1.0858902762        5.5339807297      -11.9553381499
 O        -1.0853592951        5.4333683462      -13.1734195896
 C        -1.1774324098        4.4298326308      -10.9886472661
 C        -1.6662216379        3.0695466788      -11.4228994758
 C        -1.9442227741        2.0413077572      -10.2635380299
 O        -2.7560555198        2.1966220644       -9.4031612411
 C        -1.2400255829        0.6190585413      -10.4589001124
 C        -1.3263301470       -0.0944670497       -9.0337944816
 O        -0.3340834607       -0.0158538810       -8.3762934214
 C        -2.6190282987       -0.9286765599       -8.6146378938
 C        -2.5063525991       -1.6241603469       -7.2195263963
 C        -3.4228773379       -2.8886145550       -6.9656801404
 O        -4.2683085530       -3.0774060046       -7.7888537168
 C        -3.2156420377       -3.9541461296       -5.8746455511
 C        -2.6845912562       -5.2613703245       -6.6743954251
 O        -3.1193820582       -5.5988156646       -7.7444227540
 C        -1.3121769065       -5.8685750234       -6.2119397141
 C        -1.1762151358       -7.4259503250       -6.3458525828
 C        -2.3436238473       -8.2991035827       -6.0371349359
 O        -3.3231475119       -7.8372449059       -5.4656456045
 C        -2.3706132844       -9.8406800390       -6.4801843637
 C        -3.1913298462       -9.8674975711       -7.7783909955
 O        -2.6599919003       -9.9910438523       -8.8718530144
 C        -4.7179070869       -9.7904324649       -7.6074455677
 C        -5.3584300673       -9.5587115200       -9.0138007816
 C        -5.6625505039       -8.1377638356       -9.5004609292
 O        -5.1233104417       -7.2410231848       -8.9306063964
 C        -6.8414085109       -7.9434618489      -10.5360792893
 C        -7.5896694793       -6.5745663036      -10.0771048656
 O        -7.0687862703       -5.4777365885      -10.2317332420
 C        -8.9488103113       -6.7829641234       -9.1974042498
 C        -9.2412448245       -5.4697435490       -8.4664178931
 C        -8.3334398219       -5.3216357289       -7.2016878680
 O        -7.1717482200       -4.8732809202       -7.2328131081
 C        -8.8804572884       -5.8233170201       -5.8478102777
 C        -8.3648000679       -7.2783624136       -5.5903351702
 O        -7.1526014428       -7.4964751997       -5.7054929214
 C        -9.1690054843       -8.3130178345       -4.7157393745
 C        -8.5550534241       -9.7460244145       -4.7745761822
 C        -8.8281374016      -10.2053375141       -6.2408743671
 O        -8.3379960894       -9.5966831594       -7.2046191718
 C        -9.6293632730      -11.6018778734       -6.3824644603
 C       -11.1548525681      -11.2565436770       -5.9776755779
 O       -11.5078096284      -10.0627132982       -6.0582266715
 C       -12.1647868554      -12.3128079581       -5.4211537815
 C       -11.8585584773      -12.4642214899       -3.9300052436
 C       -11.9181036185      -11.1221933107       -3.2465500992
 O       -10.8738725134      -10.5645270815       -3.0333713511
 C       -13.2628160739      -10.5975840673       -2.6588689203
 C       -14.5464137165      -11.1705519385       -3.3185748074
 O       -14.8450698258      -12.3600342786       -3.2999223884
 C       -15.4493947779      -10.2951601745       -4.3084045352
 C       -13.3448750950      -11.0672309661       -1.1125653456
 C       -13.2054422758       -9.0861209153       -2.7786185458
 C        -9.5587345290      -11.9824743938       -7.9139943615
 C        -8.8771455236      -12.7909090786       -5.5915801022
 C        -8.3575311343       -5.0424750353       -4.6332743602
 C       -10.4830536220       -5.6972985878       -5.7976751734
 C        -6.1588928599       -7.6511376866      -11.8673144115
 C        -7.8908957171       -9.1166350061      -10.5952262759
 C        -1.0113501806      -10.4187442258       -6.6838985855
 C        -3.1370881968      -10.5264887699       -5.3212068159
 C        -2.2617312087       -3.4204038024       -4.8131568730
 C        -4.5231053251       -4.4680477430       -5.2002883493
 C        -2.3457195794        0.0002718660      -11.4391997631
 C         0.2262542656        0.8068361394      -10.8792642857
 C        -1.0862695313        7.2528846986       -9.8249341586
 C        -1.8470020623        7.8151509550      -12.1967096195
 C         5.7595786730        5.5596504648      -10.0171240253
 C         5.8981109264        7.7805953585      -11.4456430970
 C         3.2151788086        0.1520322802      -14.4703372719
 C         4.9367128402        1.7398092414      -15.5797181964
 C        -1.1066281565        4.3403119167      -18.8574033330
 C         1.4366543822        4.3854293270      -19.0199362961
 C         1.6294490850       11.6208438179      -17.0939029929
 C         2.5218207333       10.3555174543      -15.0099459265
 H        -1.7156989022       11.7635506641      -15.8608760165
 H        -0.3142966536       12.5968419730      -16.0516778344
 H        -0.7784090710       12.1652009373      -14.3976752140
 H         0.9472858603        9.6207836243      -18.9205529128
 H        -0.3369805607        8.8931443675      -17.8975887729
 H         2.0948571759        7.2975692891      -18.7168433824
 H         0.5693121644        7.2108844487      -19.7588481951
 H         0.4347827322        2.1576960608      -17.9585064649
 H        -0.8491096376        2.0351391784      -16.8602329467
 H         0.6295850276        0.7156354298      -15.9816754102
 H         0.7113421597        2.0562465109      -14.9755220072
 H         2.9801019513        4.7986854157      -14.2460530354
 H         4.5395246267        4.0135567887      -14.8112500846
 H         5.4074246231        3.7792433767      -12.7234893074
 H         3.9344849991        4.1134077157      -11.8881066073
 H         2.9905934250        8.2085456384      -12.1975408307
 H         3.5960693488        9.0400038870      -10.8578802739
 H         1.2384361868        9.2249490593      -10.4395044398
 H         1.5168825432        7.8287548002       -9.6871569873
 H        -1.6844299282        4.6021077249       -9.9937416304
 H        -0.1011985712        4.1675947956      -10.7319338835
 H        -0.9153033849        2.8002114931      -12.1352453685
 H        -2.6637380253        3.0518209454      -11.8827737684
 H        -2.8635387370       -1.5778485858       -9.4158437474
 H        -3.5042799262       -0.2393845449       -8.4611267184
 H        -2.8939447214       -0.8640671436       -6.4705114819
 H        -1.4516738975       -1.7613430153       -6.8415987567
 H        -0.9697785942       -5.6242649051       -5.1871676094
 H        -0.7469808788       -5.3598115709       -7.0047949783
 H        -0.2717713971       -7.7484056801       -5.7715199959
 H        -0.8410454117       -7.6376737405       -7.3804347783
 H        -4.8252224491       -8.8562071270       -6.9181077689
 H        -5.1188366078      -10.7372279406       -7.2427261191
 H        -6.2856714808      -10.2355605771       -8.9905704189
 H        -4.8089256908       -9.9751294300       -9.8144460726
 H        -8.9080271392       -7.7117867131       -8.5061326310
 H        -9.7424256860       -6.9179175231       -9.9498914655
 H       -10.2611471712       -5.3171535827       -8.1911572100
 H        -8.9498535518       -4.7119603971       -9.2469747744
 H       -10.2542484827       -8.2701133819       -4.9334816233
 H        -8.9808343332       -7.9009875098       -3.7471679376
 H        -8.9002514889      -10.4587930029       -3.9411623046
 H        -7.4373757212       -9.6341655621       -4.6188514818
 H       -11.9781172568      -13.2947343440       -5.9316756168
 H       -13.1726614238      -11.8311523728       -5.5835305485
 H       -10.9134682398      -12.9089253710       -3.5879787033
 H       -12.6351267775      -13.0725021020       -3.5326943953
 H       -15.7561170990       -9.3534322604       -3.7667662861
 H       -16.1933356130      -10.9648777168       -4.5719695342
 H       -14.8416905274       -9.9827030379       -5.1613116057
 H       -12.4282582799      -11.2174294024       -0.6218613720
 H       -13.9248041316      -11.9619320372       -1.1233836029
 H       -13.8527112984      -10.2922474269       -0.5340373445
 H       -14.1020935217       -8.7131845000       -2.2918319638
 H       -13.2731753963       -8.7271469295       -3.7849270724
 H       -12.3179444818       -8.7020481777       -2.4644117560
 H       -10.3885235103      -11.3838711205       -8.4242494405
 H        -9.8684120546      -13.0299509741       -8.1109905405
 H        -8.6694372837      -11.6954047253       -8.3842530443
 H        -9.0668443698      -12.7505707662       -4.4345572460
 H        -7.8195925191      -12.7398219137       -5.7345800670
 H        -9.1719061914      -13.7802950942       -5.9389564679
 H        -7.3239283375       -4.9894535923       -4.8436930282
 H        -8.5762636313       -5.6307581411       -3.7851933202
 H        -8.6871287357       -4.0178712871       -4.6486094044
 H       -10.7510697964       -4.5988779959       -5.7818983830
 H       -10.9438392116       -6.2632194001       -4.9296869364
 H       -11.0201368479       -6.1114137218       -6.7006686398
 H        -5.4878575840       -8.4783205334      -12.1967246638
 H        -5.4471940179       -6.8230953055      -11.7098162076
 H        -6.8784514411       -7.3957028407      -12.5942948072
 H        -7.4761584337       -9.9931924024      -11.1890638353
 H        -8.8531367499       -8.9046356280      -10.8544320876
 H        -8.0408612116       -9.3519174728       -9.5466336533
 H        -0.4632814816      -10.2684312529       -5.7661538026
 H        -0.4070637035      -10.0222556149       -7.4899370706
 H        -1.1404681829      -11.4053269064       -6.9842341951
 H        -2.6396169262      -10.2853082804       -4.4050784857
 H        -3.1023043368      -11.5867318674       -5.5090795789
 H        -4.1740717895      -10.1212321581       -5.1986230297
 H        -2.0527039768       -4.1223336012       -4.0387701693
 H        -2.5012399283       -2.4724805278       -4.3535861647
 H        -1.2691587577       -3.3236622101       -5.2063316964
 H        -4.6895203887       -3.7796899219       -4.4276213345
 H        -4.3198441357       -5.4454888738       -4.8034189988
 H        -5.3215541021       -4.7051353769       -5.9083955426
 H        -2.5294971811        0.8003184505      -12.1302633508
 H        -3.2793636379       -0.3464411588      -10.9686932602
 H        -2.0495594214       -0.8185122458      -12.0029116890
 H         0.8358629508        0.6429049718      -10.0164023701
 H         0.4803040661        1.8503021857      -11.0301854460
 H         0.5780039889        0.0693467646      -11.6044536188
 H        -0.6243002226        6.5056886941       -9.2045348125
 H        -2.0883392860        7.1816483308       -9.4883878199
 H        -0.7004580506        8.2058457009       -9.6002866346
 H        -2.8635147331        7.6723290000      -11.9909971259
 H        -1.6383598906        7.5866472332      -13.2281285627
 H        -1.6605020028        8.9166626701      -12.0620819084
 H         5.0972204993        4.6925743478       -9.7100471258
 H         6.0969598965        6.2252161548       -9.2457690194
 H         6.7044181593        5.2945491980      -10.3355608498
 H         6.9247040248        7.6879335225      -11.0099368898
 H         5.4397554460        8.6157097933      -10.9972698268
 H         5.9364872656        8.0320041455      -12.5372617817
 H         3.9982871693        0.0029500057      -13.7078325409
 H         3.4937261629       -0.5799977595      -15.1944454049
 H         2.2011939113        0.0188229254      -14.0284745161
 H         4.9743651851        2.6042920771      -16.2130493675
 H         5.1749672092        0.8210565113      -16.1889673470
 H         5.6801366141        2.0149505538      -14.8055171041
 H        -1.4205379940        4.9948601106      -19.6857888839
 H        -1.7976681361        4.2154057111      -18.0832603330
 H        -0.9245115046        3.3105715717      -19.2680957285
 H         1.3328385598        3.4504723324      -19.4937755321
 H         2.3704976006        4.5471542949      -18.4259707940
 H         1.5612112122        5.0917909037      -19.8581837995
 H         0.9107155524       11.5425792782      -17.9007360139
 H         2.6008027672       11.4331464441      -17.5627570668
 H         1.6686745314       12.5559514855      -16.5354074575
 H         2.5311013563        9.3600782138      -14.4806294468
 H         2.4691604197       11.1497806105      -14.3073841042
 H         3.4789877064       10.4224969566      -15.5801395642
 Na        0.1763751715        6.9134971122      -14.9610135888
 Na       -5.2843353340       -5.0007272708       -8.6757186319
