232

 C        -0.6329523750       11.8189310734      -14.9866560336
 C        -0.1469783965       10.4584798650      -15.4552101861
 O        -0.6287002014        9.3914743645      -15.1200923506
 C         1.3457122362       10.3679636700      -16.0991922859
 C         1.5072609439        8.9008986629      -16.8577041923
 O         2.0623165625        7.9597731656      -16.3614938327
 C         1.0111106337        8.8313871876      -18.3196482927
 C         0.7710647186        7.4081845379      -18.7733421372
 C         0.0251902509        6.3985530637      -17.9405880875
 O        -0.6831751150        6.7494962926      -17.0151386940
 C         0.1720142610        4.9164620483      -18.2046676663
 C         0.4499972779        4.0095907965      -16.8337949915
 O         0.7836459221        4.6054170908      -15.7929612151
 C         0.1463907911        2.5399213785      -17.0076378898
 C         1.0789668990        1.7444850739      -15.9872766132
 C         2.5559141540        2.0222780806      -16.0866408713
 O         3.0060032163        2.6683103946      -17.0440593901
 C         3.5712494884        1.4973390870      -14.9540789781
 C         3.2404126039        2.6236532683      -13.8511791558
 O         2.3224287823        2.3493888593      -13.1148722585
 C         3.7687865308        4.0654270417      -13.9926072594
 C         4.3167229515        4.7143729145      -12.6162793982
 C         4.8818555647        6.0511930317      -12.7460199597
 O         5.1509992123        6.5621606118      -13.8089212373
 C         5.2655555012        6.7112730678      -11.2830034144
 C         3.8307267646        6.9801750490      -10.6476427089
 O         3.3117146716        6.0461447570      -10.0158900568
 C         2.9477485992        8.2513216372      -11.0027333445
 C         1.4595731952        7.9823647201      -10.6617557870
 C         0.6842314867        7.3912244502      -11.8078346521
 O         1.2292497491        7.1710960907      -12.8349476590
 C        -0.8423892796        7.0633000374      -11.5218129415
 C        -0.9147992837        5.5316320928      -11.9334018527
 O        -0.7541342484        5.2238686706      -13.0965917906
 C        -1.0903234110        4.3963041895      -10.7695190954
 C        -1.9154354186        3.1402655214      -11.3884908290
 C        -2.0754072216        1.9454420037      -10.3616901822
 O        -2.9800364596        2.0418846085       -9.5433487478
 C        -1.3463154917        0.4992953808      -10.5253631203
 C        -1.3941859682       -0.2426633060       -9.0741251235
 O        -0.3902502129       -0.2083042774       -8.4141936235
 C        -2.6336643676       -1.0165160140       -8.6671528955
 C        -2.4744111524       -1.7902408229       -7.3361440536
 C        -3.4497905194       -2.8586005172       -7.1317968430
 O        -4.3694173893       -3.0143196809       -7.9506612949
 C        -3.2492820689       -3.8886280510       -6.0608495619
 C        -2.5967170961       -5.2121629953       -6.7061212767
 O        -3.0702086819       -5.7815903086       -7.6761890491
 C        -1.4414510492       -5.9020833784       -5.9207740905
 C        -1.2499425736       -7.4218288085       -6.2231956161
 C        -2.5218036807       -8.2728581922       -5.9202513982
 O        -3.5300057513       -7.7370410060       -5.5312799423
 C        -2.5044038210       -9.8062089678       -6.2958067906
 C        -3.2198766224       -9.9835769837       -7.7635721391
 O        -2.5724216825      -10.1299610606       -8.7652393184
 C        -4.7769995663       -9.6894296984       -7.6704266158
 C        -5.4890712751       -9.6403935655       -9.0136046643
 C        -5.7208337407       -8.2138434079       -9.4412127182
 O        -4.9491628005       -7.3644581886       -9.0110124554
 C        -6.9347968605       -7.8411828611      -10.4279382330
 C        -7.6047056529       -6.4643439797       -9.9299815354
 O        -7.1461784966       -5.4043719826      -10.2920572360
 C        -8.9543104305       -6.6754668841       -9.0520519476
 C        -9.2499100633       -5.3746007747       -8.3277081862
 C        -8.4199592893       -5.1880500149       -7.0213217129
 O        -7.3300038723       -4.7185412687       -7.0970508612
 C        -8.9358427020       -5.6574314306       -5.6581856611
 C        -8.3405810540       -7.1929798683       -5.5553342554
 O        -7.2225344666       -7.3441006650       -5.8717808897
 C        -9.2924989008       -8.2033073265       -5.0134318538
 C        -8.6208367056       -9.5251065900       -4.9439998961
 C        -8.6673244257      -10.2274452881       -6.2979037608
 O        -8.2417089076       -9.7416047759       -7.3249225864
 C        -9.4602488821      -11.5166206210       -6.4080079379
 C       -10.9170893648      -11.1985691253       -5.9616430757
 O       -11.3648602873      -10.0770076175       -6.0715466234
 C       -11.7459352645      -12.3876317800       -5.3834444953
 C       -11.8368450561      -12.6418835639       -3.8317293185
 C       -11.9931029276      -11.2486210938       -3.2115631298
 O       -10.9549251855      -10.6194225517       -2.9886033547
 C       -13.3040017615      -10.6652126942       -2.6481327945
 C       -14.5676610258      -11.2147611125       -3.3419950413
 O       -14.7700477343      -12.4109429045       -3.4020102573
 C       -15.6003017372      -10.2145548967       -3.7197533480
 C       -13.4388683195      -11.0326858279       -1.1706771993
 C       -13.1313244612       -9.1417565493       -2.7428178293
 C        -9.5358574209      -12.1314194641       -7.9261246353
 C        -8.9143251780      -12.6384123656       -5.3430391481
 C        -8.4700785243       -4.7130752095       -4.5130381030
 C       -10.4931874397       -5.8026773661       -5.6106648010
 C        -6.2162603454       -7.5124303330      -11.8087423122
 C        -7.9036293084       -9.0004171123      -10.7108476153
 C        -1.0581883093      -10.2235650066       -6.4593639833
 C        -3.0906541252      -10.7327541441       -5.2475803940
 C        -2.3915378647       -3.3827336550       -4.8808301848
 C        -4.4818401147       -4.4862199483       -5.4400918617
 C        -2.0922186956       -0.1738882699      -11.7803113320
 C         0.1453003386        0.5121865707      -11.0627103990
 C        -1.2474201944        7.1198431600      -10.0636258944
 C        -1.6842943754        8.0972530851      -12.2737371523
 C         5.9412527529        5.4677482663      -10.5176940931
 C         6.0606648019        7.9731995045      -11.3825197600
 C         3.0294478397        0.0976769626      -14.4443094094
 C         5.0351597129        1.5536750540      -15.3613950384
 C        -1.0695579126        4.4921997750      -18.8964576771
 C         1.3188730803        4.6667901819      -19.2966233798
 C         1.6410235453       11.4370149806      -17.1390990254
 C         2.3640191430       10.4407777607      -14.9569389390
 H        -1.6707023079       12.1187392405      -15.2678740795
 H        -0.0911618281       12.6361935092      -15.4352993086
 H        -0.4262671369       11.8556553236      -13.9400088454
 H         1.7308575626        9.3084505275      -18.8557670412
 H         0.1094240676        9.4066465701      -18.6337989194
 H         1.7698878152        7.1006213131      -18.8964835992
 H         0.1864262219        7.3559828239      -19.7200767507
 H         0.3439865225        2.1516559825      -17.9991498053
 H        -0.8907880469        2.3370112238      -16.8112608268
 H         1.0037248569        0.6601311796      -16.2034947863
 H         0.7383640598        1.8134731587      -14.9367995777
 H         2.9166122791        4.7122325686      -14.1810609709
 H         4.4757752587        4.2155800026      -14.8030958859
 H         5.2033147921        4.1246692729      -12.2806326650
 H         3.4834121176        4.6417705452      -11.8195790384
 H         3.0514610751        8.7453489010      -11.9825769622
 H         3.4001283824        9.0177021574      -10.3041862918
 H         1.0731009546        8.8354763495      -10.1379287465
 H         1.4869288320        7.2517294561       -9.7157813980
 H        -1.6709180579        4.6431443642       -9.9208086853
 H        -0.1490536763        4.0501687194      -10.3725572181
 H        -1.3195752378        2.8525515412      -12.3129433593
 H        -2.9051173618        3.4314611209      -11.7220519930
 H        -2.7963823008       -1.7580325414       -9.5111516072
 H        -3.5005341609       -0.3749813749       -8.6165822564
 H        -2.5233272112       -1.1493507276       -6.4168414510
 H        -1.5472235746       -2.2579209877       -7.3210630951
 H        -1.4436989540       -5.6879519070       -4.8649762269
 H        -0.5361082847       -5.4390422090       -6.3823170318
 H        -0.2396974518       -7.7465817942       -5.9596714179
 H        -1.0933910301       -7.4290944229       -7.3130483946
 H        -4.9182370919       -8.9210414929       -6.9942948583
 H        -5.1367873994      -10.5889687997       -7.1947474596
 H        -6.4005373884      -10.2002492717       -8.9698049752
 H        -4.9294572635      -10.0984055832       -9.8677721658
 H        -8.8206289929       -7.4764590165       -8.3932556550
 H        -9.7112734595       -6.9521057000       -9.7577493430
 H       -10.2822829848       -5.1713136371       -8.0528669771
 H        -8.9791733192       -4.6468830810       -9.0496919147
 H       -10.1521838883       -8.2692569001       -5.6565388772
 H        -9.7099135273       -7.9395022356       -4.0226676676
 H        -9.1811603949      -10.0216173613       -4.1992985026
 H        -7.6197930328       -9.5973567071       -4.5813780749
 H       -11.5216183932      -13.3622012562       -5.7920367331
 H       -12.6400174069      -11.9877701208       -5.8145241861
 H       -10.8794876787      -13.0279104575       -3.5010612412
 H       -12.6074573641      -13.3756080711       -3.5419830075
 H       -15.9949372353       -9.7674190084       -2.8376271275
 H       -16.3280599632      -10.8205934623       -4.3161397768
 H       -15.0804903077       -9.4850087804       -4.3548950408
 H       -12.5489993833      -11.1579165317       -0.4820773764
 H       -13.9258850116      -12.0222407358       -1.1005601822
 H       -14.0187974077      -10.2457058209       -0.7617129755
 H       -14.0563000372       -8.6044119304       -2.7607897058
 H       -12.7201241945       -8.8597235946       -3.7161563785
 H       -12.3893521388       -8.7041768919       -2.0331190797
 H        -9.3552401479      -11.3794807739       -8.6266202552
 H       -10.4286637119      -12.6407151722       -8.2279215805
 H        -8.6356608603      -12.8520549516       -7.9976786809
 H        -8.9395420769      -12.3592580571       -4.3497710919
 H        -7.8634459524      -12.8475241225       -5.5922213754
 H        -9.4503044668      -13.6071902890       -5.3633442085
 H        -7.3981617942       -4.5688310908       -4.6326428689
 H        -8.8814833025       -4.9910061039       -3.5211078972
 H        -8.8688453375       -3.7040388859       -4.7938432864
 H       -10.9391546617       -4.9478462617       -6.0902484984
 H       -10.8680275786       -5.7949119478       -4.5843865131
 H       -10.8851144557       -6.6950008200       -6.0584512802
 H        -5.6099915998       -8.3346973563      -12.0775752366
 H        -5.4994223773       -6.7303704341      -11.6538100493
 H        -6.9702605935       -7.2091685384      -12.5615242628
 H        -7.4042248681       -9.8730811523      -10.9780970850
 H        -8.5583257385       -8.5826583228      -11.5690860465
 H        -8.7020753697       -9.0770499546       -9.9559626806
 H        -0.4658005469       -9.9999222389       -5.5308368568
 H        -0.5426626357       -9.7163015157       -7.2729366403
 H        -0.9998731411      -11.3777557591       -6.6202010092
 H        -2.4311774869      -10.5675686434       -4.3698185757
 H        -2.8658204779      -11.7557030708       -5.5437797866
 H        -4.0917206654      -10.5108641006       -4.9885134886
 H        -2.4163372428       -4.0843775326       -4.0465258553
 H        -2.8696964957       -2.4851513237       -4.5229685424
 H        -1.3378571595       -3.1781023557       -4.9214102943
 H        -4.9913846997       -3.8010964459       -4.7501640283
 H        -4.1882751759       -5.3752004895       -4.8976613224
 H        -5.0109467897       -4.9081273344       -6.2261027169
 H        -1.7059106420        0.2781161753      -12.6918907976
 H        -3.1517370150       -0.0914492039      -11.7536547552
 H        -1.8748725566       -1.2767254796      -11.7707611770
 H         1.0213979848        0.5763196058      -10.3637380981
 H         0.2788555704        1.4804388243      -11.5508567684
 H         0.2478762724       -0.3794091207      -11.6784903121
 H        -0.6020909325        6.6418398472       -9.2787102855
 H        -2.2607290295        6.6795161134       -9.9209209115
 H        -1.3617834215        8.1708251385       -9.7602223337
 H        -2.7111532911        7.9763254225      -11.8723734133
 H        -1.6835949174        8.1200379288      -13.3648059108
 H        -1.3725601629        9.0825643500      -12.0047739974
 H         5.2599985654        4.6672525191      -10.4363539932
 H         6.2354667107        5.8468003735       -9.5444631898
 H         6.9631279742        5.2013621585      -10.9475894989
 H         7.1045902844        7.7930182245      -11.0557016262
 H         5.5763297500        8.7911347763      -10.8490745868
 H         6.0128936564        8.2319960966      -12.3827506568
 H         3.5874601734       -0.2263378142      -13.5805750915
 H         3.1688619397       -0.6674318399      -15.1992438519
 H         2.0141257715        0.2824232197      -14.2250404810
 H         5.2730382541        2.0287523973      -16.3772693751
 H         5.3795549517        0.5491318580      -15.5396387014
 H         5.5808705290        2.0743376816      -14.5967881435
 H        -1.0491464169        4.9359725965      -19.8799255321
 H        -1.9870621504        4.7047356475      -18.2866342265
 H        -1.0711110519        3.4705578050      -19.0325792794
 H         1.2182146192        3.5576993327      -19.5020848296
 H         2.3203164704        4.9182147857      -19.0266385041
 H         1.1468059106        5.1324660632      -20.2697591419
 H         0.7880447676       11.6402444915      -17.8001561988
 H         2.4850289627       11.1347225720      -17.7392753534
 H         1.9801412906       12.2625427249      -16.5278992259
 H         2.3760945861        9.4926872931      -14.4624560922
 H         2.1414542539       11.2244963536      -14.1721170047
 H         3.3155986167       10.7696868264      -15.3485717539
 Na        0.3614850974        6.9987240902      -14.8242483392
 Na       -5.4478040114       -5.0601521743       -8.5642703139
