232

 C        -0.5066811475       11.6585984783      -14.8292431098
 C        -0.0151744652       10.3460813946      -15.4207164214
 O        -0.6736835206        9.3500757342      -15.1311343119
 C         1.3438447590       10.3152104499      -16.1677614549
 C         1.5052379771        8.9347363556      -16.8515767204
 O         1.9610219164        7.9044011368      -16.2832390652
 C         1.0513367620        8.8296947890      -18.3252609751
 C         0.7795408568        7.4583936874      -18.8501414763
 C         0.1130952821        6.4950986020      -17.8465800134
 O        -0.7375234197        6.8416150841      -17.0473014415
 C         0.1601678376        4.9323292954      -18.1982744304
 C         0.4250724469        4.0329967138      -16.9077798814
 O         0.7859269835        4.6089086491      -15.8949961827
 C         0.2568528971        2.5913575441      -16.9727493098
 C         1.1128216340        1.6971856534      -15.9841027704
 C         2.6475080292        1.9705692199      -16.1133072336
 O         3.1565248227        2.6870743754      -16.9518839138
 C         3.5300229657        1.5057775398      -14.8924795630
 C         3.1013629230        2.6766635142      -13.8822449500
 O         2.2529034259        2.5373696539      -13.0227910426
 C         3.7143891370        4.0981636800      -14.1047864556
 C         4.1394579902        4.6282409289      -12.7056248935
 C         4.9262691177        6.0097223616      -12.7694263431
 O         5.2192707807        6.6345069992      -13.7423042056
 C         5.2706851385        6.7059102527      -11.3713928925
 C         3.9270892851        6.9924651021      -10.6168100388
 O         3.3763084835        6.0827173824      -10.0032305798
 C         3.1222557046        8.3068052673      -10.8246010189
 C         1.6371939273        7.9277779129      -10.5527032382
 C         0.8181300472        7.3476044741      -11.6890558409
 O         1.3076129288        7.0281625639      -12.8113655502
 C        -0.8601481651        7.0006991425      -11.4637126123
 C        -0.9578277459        5.4328817153      -11.9620569479
 O        -0.6130508744        5.0942841091      -13.0612592710
 C        -1.1574502846        4.3745833136      -10.9318990382
 C        -1.8713409779        3.1257332970      -11.4068111729
 C        -2.0746667399        1.9061259344      -10.4807891183
 O        -2.9064939162        1.9729893574       -9.6406579657
 C        -1.3928275563        0.4930795707      -10.6894733231
 C        -1.4094343509       -0.2541378902       -9.3061404628
 O        -0.5144007031       -0.3106279889       -8.5359772662
 C        -2.7083579326       -1.0234858023       -8.8490216369
 C        -2.3823950523       -1.7840637465       -7.5742238279
 C        -3.4321649184       -2.9338994392       -7.2688758835
 O        -4.3884491397       -3.0732344948       -7.9614325817
 C        -3.2582952667       -4.0146520067       -6.0719424762
 C        -2.5741239703       -5.2907620537       -6.6693434917
 O        -2.9887771006       -5.7903415416       -7.7017994909
 C        -1.5490374919       -5.9634073068       -5.7857041646
 C        -1.3895913286       -7.3823467073       -6.3448866711
 C        -2.6412215182       -8.1943949492       -5.9680499335
 O        -3.6476580802       -7.6812804270       -5.4672867274
 C        -2.4731204473       -9.7684844979       -6.2690398982
 C        -3.2083477462       -9.9254474872       -7.6305231147
 O        -2.6522829517      -10.1810771464       -8.6777837457
 C        -4.7575421921       -9.7905320801       -7.6715410593
 C        -5.4548466533       -9.7306987337       -9.0127948437
 C        -5.7229095322       -8.2071199181       -9.4271150289
 O        -5.0075836685       -7.3384113839       -9.0861170299
 C        -6.9385990975       -7.8170495848      -10.5204033260
 C        -7.6373954344       -6.5715805997       -9.9101531308
 O        -7.1415060405       -5.4690676686      -10.1751034123
 C        -8.8029993814       -6.5554150050       -8.9780910237
 C        -9.2850386394       -5.2823898183       -8.2600938997
 C        -8.4551078452       -5.0567647251       -7.0276750138
 O        -7.2994842416       -4.6569886183       -7.0186065262
 C        -9.0887112740       -5.5278965052       -5.6589022634
 C        -8.4189380123       -6.9729278934       -5.5430237503
 O        -7.2665845153       -7.1874818431       -5.8957375813
 C        -9.2863940329       -8.1700639691       -5.0142746732
 C        -8.4862605611       -9.5203594958       -5.0554249229
 C        -8.5927782122      -10.2537866431       -6.4110240717
 O        -8.0601123769       -9.7088638871       -7.3974699343
 C        -9.3794647152      -11.6372313862       -6.3405132703
 C       -10.9783943611      -11.3553493777       -5.9019805264
 O       -11.3515413735      -10.1852975511       -6.0832557999
 C       -11.8525690735      -12.4971671784       -5.4892223564
 C       -11.8636536601      -12.6358836941       -3.9431510376
 C       -11.9138241203      -11.2940790558       -3.1238280797
 O       -10.8518378046      -10.7282185610       -2.9425023267
 C       -13.3202847282      -10.6410429624       -2.5906781078
 C       -14.6215063601      -11.2016825490       -3.3020320691
 O       -14.6393370457      -12.3966676833       -3.5401518832
 C       -15.8676841514      -10.2289903602       -3.5934493274
 C       -13.5015106212      -11.0047941665       -1.0867810437
 C       -13.1403447392       -9.0751283814       -2.6323181493
 C        -9.5319819949      -12.2581980106       -7.7198750527
 C        -8.7167353716      -12.6397748264       -5.3837125563
 C        -8.4500001268       -4.6348424270       -4.5595057720
 C       -10.6168439225       -5.6778870939       -5.5384170631
 C        -6.1803654581       -7.3665244733      -11.6882739131
 C        -7.9902511155       -8.9218441754      -10.7451276491
 C        -0.9995971828      -10.2377884559       -6.4814221168
 C        -3.0940028224      -10.7180714497       -5.1320511117
 C        -2.4061995578       -3.2716725177       -4.9421575352
 C        -4.6440433911       -4.4209348666       -5.5394223700
 C        -2.1723302646       -0.4221951723      -11.6000270748
 C         0.1654827274        0.6578759797      -10.9732817740
 C        -1.3063557961        7.2071901172      -10.0387626546
 C        -1.5834933347        7.9540931983      -12.4107684246
 C         6.1155482164        5.6440931104      -10.5695895799
 C         6.0421569005        8.0831318334      -11.5067488276
 C         3.0627203321        0.0827493437      -14.4876189342
 C         5.0565770509        1.4416233545      -15.3231882792
 C        -1.2379778364        4.5697270805      -18.8420156125
 C         1.3112383342        4.7003362348      -19.2960006104
 C         1.5981188682       11.5222121721      -17.1612657754
 C         2.2512160410       10.4065803865      -14.9369522755
 H        -1.5377215448       11.6522586690      -15.2320198522
 H        -0.2023146675       12.5957045948      -15.2685650749
 H        -0.4575768529       11.7667043224      -13.7380064904
 H         1.6534664215        9.5316204584      -18.9029771596
 H         0.0976086279        9.2844084748      -18.5159039217
 H         1.7349355961        7.1551705863      -19.2076213740
 H        -0.0096349748        7.4989393260      -19.6155625040
 H         0.5018901265        2.2145827001      -17.9768771473
 H        -0.8145739241        2.3973470755      -16.8340674225
 H         0.8719616608        0.6444444173      -16.0660857007
 H         0.8717755345        1.9677118699      -14.9522616707
 H         3.0038500126        4.8519753853      -14.4404152451
 H         4.5726417097        4.1865307553      -14.7709174137
 H         4.8952336240        3.9375552540      -12.3771347168
 H         3.2903149030        4.6012948309      -12.0397353935
 H         3.2227960032        8.6978449239      -11.8420284122
 H         3.5212983773        9.1035908015      -10.2249587696
 H         1.1883832617        8.8600295386      -10.1193179035
 H         1.5751724572        7.2823150254       -9.6468345643
 H        -1.6061252304        4.6035643417      -10.0002691462
 H        -0.1485417130        4.1382685646      -10.6429606579
 H        -1.3043908228        2.8562679858      -12.3698372562
 H        -2.8724060175        3.4002158720      -11.7220437128
 H        -3.0326315047       -1.6854947581       -9.5412776036
 H        -3.5475834524       -0.2979418839       -8.6031537557
 H        -2.5392939886       -1.0197578282       -6.6571049601
 H        -1.3537880727       -2.1297896918       -7.5975737047
 H        -1.9592079793       -5.9923569511       -4.7984935650
 H        -0.5485505052       -5.4511669455       -5.7356534279
 H        -0.5105544914       -7.8698158780       -5.8281895089
 H        -0.9892600796       -7.3999977704       -7.2940942352
 H        -4.8834313137       -8.7538383494       -7.1267709586
 H        -5.1884309247      -10.5348078648       -6.9199521425
 H        -6.4808549876      -10.3067455394       -8.9590772487
 H        -4.9498184413      -10.2054024912       -9.8505802791
 H        -8.7137671168       -7.4333021607       -8.2363973979
 H        -9.5828306889       -6.8384100015       -9.6533719157
 H       -10.3077205101       -5.3881292609       -7.9260918611
 H        -9.3091121608       -4.4216662315       -9.0373679626
 H       -10.2995848184       -8.2405608358       -5.5622540892
 H        -9.5935042580       -7.9895487552       -3.9628269940
 H        -8.7595134372      -10.0204764188       -4.1326757715
 H        -7.4396053701       -9.4451045255       -4.9180331143
 H       -11.4933109571      -13.4525585284       -5.8510773495
 H       -12.7986744226      -12.3283574420       -5.9901662250
 H       -10.8902743405      -13.1825993878       -3.6782174387
 H       -12.6857671217      -13.2862552836       -3.6115343534
 H       -16.2785734849       -9.9911785478       -2.5824049584
 H       -16.5408767655      -10.7367890283       -4.1829904992
 H       -15.4746868088       -9.3360621221       -4.1166252128
 H       -12.5791626917      -10.6501754870       -0.4862903504
 H       -13.3603154979      -12.1048207823       -0.9663879614
 H       -14.3695103794      -10.5151106682       -0.5944785117
 H       -14.1031929562       -8.6247144650       -2.1967210288
 H       -13.0640328323       -8.4864967649       -3.6158358138
 H       -12.2979127563       -8.7613525848       -2.0391192913
 H        -9.0790648122      -11.5833331856       -8.4409759843
 H       -10.5636453514      -12.4293049987       -8.0850802373
 H        -9.0300189466      -13.1888162863       -7.7903112635
 H        -8.4490679342      -12.3435770890       -4.3227814434
 H        -7.8319617185      -12.9348140751       -5.8614539016
 H        -9.3220884061      -13.5312692408       -5.1810788736
 H        -7.3693234376       -4.6511808720       -4.7525504996
 H        -8.8409050689       -4.9836097414       -3.5722572575
 H        -8.7844046181       -3.5313404525       -4.6795963388
 H       -11.0176115012       -4.7305857176       -5.6494519293
 H       -10.9843322455       -6.0019494976       -4.5573461129
 H       -10.9453487076       -6.3838741130       -6.2132209317
 H        -5.5364701459       -8.1618215880      -12.0884625107
 H        -5.4814363110       -6.5262211821      -11.5364757092
 H        -6.9912116710       -7.0659482168      -12.3181715986
 H        -7.5460918398       -9.9317504128      -10.7402471653
 H        -8.5495941318       -8.7238163745      -11.6181665337
 H        -8.7920710870       -8.7534033879       -9.9738127693
 H        -0.3762489043      -10.0265747281       -5.5488512268
 H        -0.4653624920       -9.7218706065       -7.3105002374
 H        -0.9697382395      -11.3590269082       -6.5779496414
 H        -2.3200090977      -10.8638597141       -4.3936145775
 H        -3.2893824751      -11.7178378759       -5.5163581445
 H        -3.9600378864      -10.1691556944       -4.7047042294
 H        -2.1319995906       -3.7464100895       -3.9843387283
 H        -2.9815084379       -2.3415902566       -4.7263853213
 H        -1.4304904291       -2.9066957370       -5.2473358036
 H        -5.1187931067       -3.4669402221       -5.2400524150
 H        -4.6320116462       -5.1179126073       -4.6609535024
 H        -5.1146824416       -4.9832709369       -6.3699318422
 H        -1.8967709629       -0.2682529932      -12.6689404809
 H        -3.2723187542       -0.1449004906      -11.4694947128
 H        -2.0771119419       -1.4683653383      -11.3169412665
 H         0.6703759772        1.1902944280      -10.1651220799
 H         0.5213917332        1.3091602806      -11.7950888609
 H         0.4978794096       -0.3606644542      -10.9748450336
 H        -0.6079544955        6.7350656122       -9.2332354253
 H        -2.3599290140        6.8486027957       -9.7823409575
 H        -1.3276536387        8.2389465156       -9.8000472749
 H        -2.6442088890        7.8209958114      -12.3555172516
 H        -1.2381891498        7.8552559569      -13.4467866159
 H        -1.3467534912        9.0556193030      -12.2187308300
 H         5.4038773642        4.8020500324      -10.3822416212
 H         6.6281377198        5.9745188811       -9.6657102542
 H         6.8786238803        5.3274693348      -11.2469808947
 H         7.1673061334        7.8543947566      -11.4586032119
 H         5.7197262042        8.7682660170      -10.7620489476
 H         5.7616883844        8.4884859112      -12.5080888007
 H         3.7664425043       -0.4207369305      -13.7847997593
 H         3.0895352362       -0.4576971110      -15.3845958917
 H         2.0210478416        0.1727410759      -14.1149159747
 H         5.1944156439        1.9597715300      -16.2860504390
 H         5.4175106426        0.4022165949      -15.6487713465
 H         5.6445316367        1.8536638164      -14.5332386785
 H        -1.2654572095        5.0236826769      -19.8787402872
 H        -2.0251904734        4.8914839065      -18.1756806912
 H        -1.3693947250        3.5072583736      -18.9403049231
 H         1.5618267322        3.6402375891      -19.3870204338
 H         2.2511919944        5.2053312886      -19.0083633794
 H         1.0695690078        5.0673156089      -20.2709918635
 H         0.6821081271       11.6732969022      -17.7345692428
 H         2.4544318912       11.4259677842      -17.8003386776
 H         1.7804517542       12.3110614393      -16.4582646287
 H         2.0415132294        9.6040228330      -14.1690141578
 H         2.0438990082       11.3352051733      -14.4375067382
 H         3.2875617854       10.6216483558      -15.2006871106
 Na        0.3278101974        6.9002117799      -14.9071821708
 Na       -5.4946421486       -5.0527488606       -8.4813109120
