232

 C        -0.5020013176       11.5733372168      -14.7662540814
 C        -0.0728827453       10.2070887267      -15.4317608933
 O        -0.6154312302        9.1540691009      -15.1747792774
 C         1.3605282217       10.3319188726      -16.0645289071
 C         1.5398605155        9.0016862171      -16.8528559390
 O         1.8060543632        7.9908985794      -16.2222254741
 C         0.9460455014        8.9096354845      -18.2806649477
 C         0.7377558146        7.4904519608      -18.9269371597
 C        -0.0101686586        6.5422387833      -18.0150550835
 O        -0.6392458935        6.9622052122      -17.0688939004
 C         0.1750416306        4.9901959902      -18.2524190952
 C         0.5092215368        4.2075362151      -16.9651196783
 O         0.7721046748        4.6643188318      -15.9070075081
 C         0.4015462317        2.5460840938      -17.0869816263
 C         1.2019838280        1.7734234876      -16.0444217930
 C         2.6953441573        2.0731044814      -16.1139535304
 O         3.1879996371        2.6965792783      -17.0027558892
 C         3.4145488796        1.5544399037      -14.8953635827
 C         3.0956071358        2.7268133006      -13.8720836655
 O         2.2352943852        2.5855031716      -13.0103092412
 C         3.7394878107        4.0604190342      -14.1529189586
 C         4.1576643524        4.7124409396      -12.8329709221
 C         4.9009489682        6.0697179848      -12.7637921265
 O         5.2149144996        6.6032724342      -13.8097724569
 C         5.2256020014        6.6930560909      -11.3989038752
 C         3.9032447268        6.8351419908      -10.6253389158
 O         3.4922440971        5.9897337906       -9.8977772340
 C         3.1434445040        8.1800477040      -10.7637310320
 C         1.5998952399        7.9688745934      -10.4766480461
 C         0.8518532244        7.2358769384      -11.5368007235
 O         1.4180964606        7.0437801851      -12.6461242638
 C        -0.6157817134        6.9042068889      -11.4552657229
 C        -0.7254647303        5.3499816346      -11.9303570411
 O        -0.6078809690        5.2163596886      -13.1313915977
 C        -1.1882822880        4.2212285063      -10.9512754616
 C        -1.8175907681        2.9819609184      -11.6168781281
 C        -2.1386104471        1.8241190486      -10.5873485926
 O        -2.9004065248        1.9914538745       -9.6533185350
 C        -1.4351521383        0.4013037347      -10.6854471449
 C        -1.4742364327       -0.2888491754       -9.3377413228
 O        -0.4387882649       -0.3331825971       -8.6499316702
 C        -2.8274178033       -1.0442034452       -8.9006579218
 C        -2.4805491382       -1.8783471979       -7.6787812480
 C        -3.4864122331       -3.0032804185       -7.4083015775
 O        -4.4459090516       -3.1258725953       -8.1466633043
 C        -3.3036110555       -3.8331126577       -6.1849236402
 C        -2.6404781945       -5.2978204973       -6.5732389364
 O        -2.9839068659       -5.6050852896       -7.6877125924
 C        -1.6317454662       -6.0051102771       -5.7168919200
 C        -1.4472837865       -7.4373363682       -6.2495110626
 C        -2.5591068142       -8.3232690408       -5.9021944576
 O        -3.6213504166       -7.8456213414       -5.5070031318
 C        -2.4870596119       -9.7618110277       -6.2872779546
 C        -3.3073281019       -9.9492325362       -7.6055089028
 O        -2.6718797765      -10.2321000276       -8.5904634430
 C        -4.8898231926       -9.7647072202       -7.5735942489
 C        -5.4493440783       -9.6172687084       -8.9730495191
 C        -5.8110447071       -8.2566746381       -9.4647463278
 O        -5.0887496140       -7.3595824307       -9.0614620422
 C        -6.9346675548       -7.7784310661      -10.4258718768
 C        -7.5888456253       -6.4897666527       -9.7498236294
 O        -7.0795533116       -5.3921881244      -10.0328320290
 C        -8.8827569130       -6.6612694119       -8.9277128533
 C        -9.2774663368       -5.2512277757       -8.3549027858
 C        -8.5717576358       -4.9756405764       -7.0031076281
 O        -7.3821873242       -4.5741183465       -7.0052896556
 C        -9.1746515672       -5.4668616032       -5.6536429659
 C        -8.4623799647       -6.9003562640       -5.5411504288
 O        -7.2745531525       -6.9767142498       -5.8812299200
 C        -9.1983710570       -8.1829656383       -4.9953150590
 C        -8.3270306418       -9.4741293303       -5.0207448570
 C        -8.5672752203      -10.2402634327       -6.3703501263
 O        -8.0896784817       -9.9665725184       -7.4467463417
 C        -9.2969992292      -11.7114993821       -6.3531439162
 C       -10.9001874927      -11.4096928114       -5.9015446981
 O       -11.3861136854      -10.3199651847       -6.0563060945
 C       -11.8762978625      -12.4983895357       -5.4845360968
 C       -11.9054001927      -12.6524081993       -3.9687739593
 C       -11.9514290460      -11.2435227964       -3.1353229220
 O       -10.8870190246      -10.7901259793       -2.8578410928
 C       -13.2604195868      -10.6380913143       -2.5263148896
 C       -14.5607226385      -11.1425927991       -3.2693416491
 O       -14.6463110599      -12.2608227618       -3.7216135389
 C       -15.8850858102      -10.3747233695       -3.4114608718
 C       -13.4459861818      -11.0781785877       -1.0501636449
 C       -13.2052994620       -9.0792028256       -2.5918820928
 C        -9.4795973162      -12.3721036365       -7.6993187665
 C        -8.5191271881      -12.5574278632       -5.4388358444
 C        -8.4789122075       -4.6095027655       -4.4933030001
 C       -10.6790910344       -5.3456702180       -5.5105327676
 C        -6.1052454756       -7.3299392503      -11.7590970754
 C        -8.0137926020       -8.9246238812      -10.7260631015
 C        -1.0314765267      -10.2187646013       -6.5140202114
 C        -3.1800288493      -10.5093969658       -5.0947058144
 C        -2.4254476681       -3.1989942374       -5.0416596490
 C        -4.6812692263       -4.2631436221       -5.5654964182
 C        -2.1434595958       -0.4916640527      -11.6915021168
 C         0.1084557418        0.7891095001      -10.9850219173
 C        -1.2196478958        7.3012688883      -10.0781193643
 C        -1.4582891066        7.6953724530      -12.5533965534
 C         6.3130127581        5.9026881552      -10.5328262285
 C         6.0547290111        8.0689197032      -11.7149963466
 C         3.0637910136        0.1067822272      -14.3472492124
 C         4.9383071442        1.4467693881      -15.2121030984
 C        -1.3252358389        4.6251550708      -18.7523570339
 C         1.2692301070        4.5364043758      -19.2041942342
 C         1.4753622982       11.5055611498      -17.0642538981
 C         2.4162519782       10.3270411831      -14.8874870032
 H        -1.4993221222       11.9039012663      -14.8883896693
 H         0.0442734738       12.4650609174      -15.1399335135
 H        -0.2255747505       11.4803180294      -13.6817699991
 H         1.6011271361        9.6156239123      -18.9759213364
 H         0.0391839035        9.4598913734      -18.4475369224
 H         1.8181745142        7.2027685851      -18.8759901774
 H         0.3438857573        7.5746338803      -19.9218967052
 H         0.6330696084        2.0548041586      -18.0447584392
 H        -0.6694202704        2.3002438885      -16.8502932561
 H         1.0351806962        0.6914999812      -16.0426335408
 H         0.8012026989        2.1460442564      -15.1165479764
 H         3.0700561207        4.7792717056      -14.6481035403
 H         4.6206726570        3.9887528139      -14.8006490653
 H         4.6417988470        3.9579042102      -12.2561572649
 H         3.2413391550        4.9451736090      -12.4273390940
 H         3.3133922402        8.6220207972      -11.7431184666
 H         3.5809932267        8.8703622105      -10.0967698332
 H         1.1904546111        8.9791010095      -10.2021047415
 H         1.5327112430        7.5294366698       -9.5710255389
 H        -1.9449832502        4.5090412561      -10.1861526138
 H        -0.3374721455        4.0311819920      -10.2742884640
 H        -1.1964155725        2.7027405412      -12.4139455179
 H        -2.7510665022        3.4166491702      -12.0999807881
 H        -3.1329741500       -1.7383994456       -9.6912049687
 H        -3.5965838561       -0.2989236319       -8.6883770507
 H        -2.3622763559       -1.2429009243       -6.8344978436
 H        -1.4277574749       -2.3995367229       -7.9761133147
 H        -2.0805052425       -6.0208288593       -4.6884245141
 H        -0.6815870200       -5.4661771166       -5.6165681817
 H        -0.4735219537       -7.8206137970       -5.9725874376
 H        -1.2471134785       -7.4851633718       -7.3300910622
 H        -5.0415344223       -8.8680878921       -6.8117971325
 H        -5.2563961715      -10.7002198259       -7.0010282877
 H        -6.3221364492      -10.2894919869       -9.1392764643
 H        -4.6611173271      -10.0506712453       -9.6327224520
 H        -8.5829039341       -7.4028765233       -8.0866720677
 H        -9.6932328424       -7.2015499024       -9.5325628662
 H       -10.3705481470       -4.9899547815       -8.3295537050
 H        -8.8055993211       -4.5157805023       -9.0973004255
 H       -10.2142477159       -8.3441935298       -5.4726886297
 H        -9.4589987140       -7.9718337679       -3.9386860060
 H        -8.5135740331      -10.0026774829       -4.0517066920
 H        -7.2286354604       -9.3196650347       -4.9101205646
 H       -11.7439302187      -13.4758001391       -5.9697519999
 H       -12.9216883605      -12.1627233130       -5.8272483307
 H       -11.0638407242      -13.2868745532       -3.5743414075
 H       -12.8530000395      -13.1572151493       -3.7109068170
 H       -16.2025098542      -10.3718252915       -2.3510051328
 H       -16.5456568435      -11.0106506151       -3.9910578929
 H       -15.7925398899       -9.4054444451       -3.8608298393
 H       -12.8752012035      -10.4035431879       -0.4341719488
 H       -12.8827419551      -11.9841543202       -0.8509031732
 H       -14.5201299405      -10.9724847471       -0.6372963097
 H       -13.8568385533       -8.6014654003       -1.8049717112
 H       -13.5411995905       -8.5464018609       -3.5113407099
 H       -12.1674578196       -8.7583853635       -2.3729497597
 H        -8.7756173380      -11.9635299419       -8.4787085257
 H       -10.4864470268      -12.2029293096       -8.1135109655
 H        -9.4065601094      -13.4092303544       -7.6439101757
 H        -8.2456976137      -12.1087070647       -4.4417489016
 H        -7.5765761254      -12.8202795064       -5.9361631447
 H        -9.0318182308      -13.4393414416       -5.0640047408
 H        -7.3692685650       -4.6128718644       -4.6290863004
 H        -8.9159023155       -5.0444613814       -3.5692999205
 H        -8.8597748484       -3.5963744892       -4.4880701220
 H       -10.8716426877       -4.3366211390       -5.1428285618
 H       -11.0994945014       -5.9450779925       -4.7596978920
 H       -11.1483295949       -5.6730678487       -6.4362990653
 H        -5.5434792619       -8.1850600421      -12.2287866734
 H        -5.3351079322       -6.5540845803      -11.6354052067
 H        -6.9260620910       -6.9637404548      -12.3438248658
 H        -7.3201462150       -9.7654352777      -11.0442206092
 H        -8.5561476619       -8.5846698494      -11.5536108145
 H        -8.7542508585       -9.1632708379       -9.9953480355
 H        -0.3817387550      -10.0321763499       -5.6416696467
 H        -0.6008559263       -9.5934302138       -7.3359896572
 H        -0.9378989201      -11.2563103920       -6.6531201318
 H        -2.4857844530      -10.9043376244       -4.3698316557
 H        -3.6888247755      -11.3840841296       -5.5006403341
 H        -3.8926747077       -9.7445085944       -4.7151016035
 H        -2.2162265579       -3.9349194894       -4.2554715907
 H        -2.7827611766       -2.2613055792       -4.5766623112
 H        -1.3875585524       -2.9603537129       -5.3698316724
 H        -5.3258827304       -3.3661392396       -5.6616327581
 H        -4.5959495861       -4.4576215961       -4.4606997567
 H        -5.0474237028       -5.2022982491       -6.0979733555
 H        -2.0540201665       -0.1028883427      -12.7343687605
 H        -3.2401089392       -0.3988786470      -11.4122911252
 H        -1.8679741695       -1.5533889800      -11.6325511402
 H         0.3596520722        1.7340853786      -10.5844219739
 H         0.3737876829        0.9654309005      -12.0134645212
 H         0.7060277285       -0.0160085455      -10.5638878286
 H        -0.8247194336        6.7562800989       -9.2684485908
 H        -2.3053164349        7.1784855615      -10.0506185050
 H        -1.0647147453        8.3778846146       -9.7947547384
 H        -2.4957403497        7.3693820272      -12.5134474218
 H        -1.0561326381        7.6169008731      -13.5625060166
 H        -1.3866082734        8.8053710727      -12.4206223891
 H         5.7942155880        5.0592711876       -9.9953334687
 H         6.8918488857        6.5203326092       -9.8310851900
 H         6.9141568374        5.4967559444      -11.2915430831
 H         6.9616868684        7.7356114920      -12.1451774515
 H         6.2023012122        8.6789915351      -10.7801646387
 H         5.4600070639        8.6906341316      -12.4993217185
 H         3.9532274498       -0.2007206218      -13.7846721213
 H         2.9740937931       -0.5464960541      -15.2448123851
 H         2.1443804247        0.1112380858      -13.7218595657
 H         5.1445670231        2.1633563596      -15.9599242943
 H         5.2749587198        0.5779252749      -15.7702103430
 H         5.5000081980        1.6102668239      -14.2052748494
 H        -1.5867733656        5.1835275934      -19.6546893277
 H        -1.9100727843        4.8939819677      -17.9097952420
 H        -1.5674438643        3.4938109305      -18.9070567653
 H         1.3937268979        3.4953263370      -19.2085045149
 H         2.2565257261        4.9167550800      -18.8224338215
 H         1.1632506711        5.0030251089      -20.1844619097
 H         0.6199690218       11.3974432436      -17.6912094355
 H         2.4055431801       11.4697015378      -17.6425259755
 H         1.4499494277       12.4420174051      -16.5209016218
 H         2.0642753228        9.7444457971      -14.0102850313
 H         2.5033073720       11.3581449807      -14.5206621469
 H         3.4630863943       10.2459794284      -15.1923463100
 Na        0.2520958682        6.6986351148      -14.9677764706
 Na       -5.4636946513       -5.0807864493       -8.4270864899
