232

 C        -0.5865534238       11.0979183730      -14.4072650577
 C         0.0613141697        9.8858087640      -14.9425104650
 O        -0.3043625892        8.7517090047      -14.7383532632
 C         1.3417880048       10.1161502256      -15.8451676863
 C         1.3894084553        8.8934533035      -16.7598065008
 O         1.8964162356        7.9187645045      -16.2815516535
 C         1.0008266488        8.9624004376      -18.1765673650
 C         0.9362821023        7.4890275611      -18.8494896171
 C         0.1527479994        6.4062078130      -18.0180059429
 O        -0.6558217255        6.7391994123      -17.1594407415
 C         0.0340952449        4.9300681115      -18.5547146589
 C         0.5119989495        4.0968714731      -17.2831662214
 O         0.8604254777        4.6203557116      -16.2528562713
 C         0.4241618509        2.5245263712      -17.5215954122
 C         1.0226265907        1.9048795527      -16.2344455746
 C         2.5967649846        2.0038056040      -16.1361464725
 O         3.2656108253        2.4891698236      -17.0310296451
 C         3.3767264755        1.5722238148      -14.8218212048
 C         3.1992171523        2.8208963669      -13.6586681910
 O         2.2136949356        2.7716852012      -12.9153268261
 C         3.9933586516        4.0505244045      -13.8097425890
 C         4.0632115803        4.9795597723      -12.5965935735
 C         4.9210541470        6.2259347021      -12.8158461237
 O         5.3408339334        6.5206853765      -13.9221960880
 C         5.4113750637        7.0951437711      -11.4928890477
 C         4.1944052658        7.0287354321      -10.4951012006
 O         3.9295411441        6.0390464888       -9.8592490761
 C         2.9577347971        8.1740296786      -10.5367774783
 C         1.6772185093        7.3169635894      -10.4265591601
 C         0.9548273367        7.0352531345      -11.6416028605
 O         1.5132407157        7.1414413170      -12.7248418570
 C        -0.5791310326        6.6866698401      -11.3934555970
 C        -0.7019866181        5.3546295602      -12.1625479777
 O        -0.3754332951        5.1328526162      -13.3049099249
 C        -1.2744148024        4.1763199022      -11.2904106533
 C        -1.7435069251        2.8595750419      -11.9616944537
 C        -2.0923223090        1.7691554624      -10.9525742974
 O        -2.9734741077        1.8497932477      -10.0831803322
 C        -1.2185962722        0.4486202805      -10.9863843839
 C        -1.3767547056       -0.3395109179       -9.7019461469
 O        -0.3746425886       -0.4675504250       -8.9788457964
 C        -2.7606366481       -0.9154174328       -9.2531040556
 C        -2.6242604183       -1.5284152417       -7.9001607579
 C        -3.4979832940       -2.7573911792       -7.6336858462
 O        -4.4521706245       -3.0384463277       -8.3551276434
 C        -3.3303893710       -3.5870484909       -6.2213800748
 C        -2.7721601641       -5.0272890619       -6.6508181130
 O        -3.3210193500       -5.6016238163       -7.5685894140
 C        -1.8185795947       -5.8016633537       -5.7914216554
 C        -1.6082298756       -7.3024395831       -6.1538120986
 C        -2.8519530580       -8.3026654827       -5.8583680352
 O        -3.8469748318       -7.9246615377       -5.3197184406
 C        -2.6961333533       -9.8345724148       -6.1677169658
 C        -3.4662952227      -10.0632197468       -7.5578790650
 O        -2.8522323646      -10.3365166186       -8.5517616468
 C        -5.0742753563       -9.9487158662       -7.5742498805
 C        -5.6719230731       -9.7314811497       -8.9151253914
 C        -5.8201157295       -8.2354434191       -9.1839085675
 O        -5.1639044095       -7.4420010347       -8.5143866763
 C        -6.9052537813       -7.7616068619      -10.2181628951
 C        -7.5856998556       -6.4020089678       -9.6863668404
 O        -7.0239596033       -5.3150844829       -9.8350606178
 C        -8.9201764941       -6.5806405122       -8.9405407924
 C        -9.4202844340       -5.1980888326       -8.4183852113
 C        -8.6887128560       -4.8715100550       -7.1527764482
 O        -7.7058906614       -4.1381015346       -7.1179783425
 C        -9.0822106771       -5.3759630822       -5.6944606949
 C        -8.3413460656       -6.8803816710       -5.5848566456
 O        -7.1858084842       -6.9508783889       -5.8001723328
 C        -9.2740991650       -8.1392067501       -5.5123990333
 C        -8.5461310534       -9.4429693191       -5.1880352069
 C        -8.6429485376      -10.3016092683       -6.3796030791
 O        -8.3063565523       -9.8280620700       -7.4407580479
 C        -9.3602969553      -11.6371589897       -6.1747194253
 C       -10.7717536383      -11.3768315390       -5.7475794017
 O       -11.1950767375      -10.2480702425       -5.7943914050
 C       -11.5462739941      -12.6111320606       -5.2862672984
 C       -11.6082795035      -12.6926855181       -3.7031691267
 C       -11.7831125003      -11.2611330279       -3.0580981953
 O       -10.8444132551      -10.4933009964       -2.9801006369
 C       -13.3045368782      -10.8329930909       -2.4820448855
 C       -14.6219305401      -11.2582964260       -3.3027827116
 O       -14.5924677986      -11.7852497355       -4.3841993651
 C       -15.9334729038      -10.8060315867       -2.5984331124
 C       -13.3830338545      -11.4364589464       -1.0611902604
 C       -13.1955169459       -9.2759989320       -2.4103530709
 C        -9.2688035625      -12.5172156806       -7.4616403862
 C        -8.5783068645      -12.4416450455       -5.0454743378
 C        -8.4443266825       -4.4273825608       -4.6077741260
 C       -10.6538014858       -5.5635272648       -5.4077245698
 C        -6.1154498137       -7.3687899772      -11.5045612308
 C        -7.9928363384       -8.8014480806      -10.6114858612
 C        -1.2038747743      -10.1647294252       -6.4896968719
 C        -3.5300973694      -10.5699632235       -5.0708060106
 C        -2.4149331139       -2.9751409564       -5.1839177109
 C        -4.7654572054       -3.7506614428       -5.6324650447
 C        -1.9533632904       -0.2317933340      -12.2110945361
 C         0.2696732248        0.7745093199      -11.2646292184
 C        -0.9518277498        6.6072034431       -9.8582955245
 C        -1.4792920635        7.7442867191      -12.0189828449
 C         6.6881522518        6.2411260372      -11.1502595503
 C         5.9661344911        8.4689372507      -11.9633645394
 C         2.8028021049        0.3343124006      -14.2203163457
 C         4.8607297642        1.4279318217      -15.2283895333
 C        -1.3968268147        4.6283850084      -18.8352102086
 C         0.9617638385        4.6508889760      -19.7137095119
 C         1.1902685006       11.4646512759      -16.6213291487
 C         2.5463391144       10.1403059209      -14.9291033408
 H        -1.6534255490       10.9828547643      -14.3308527219
 H        -0.3770488055       11.9888811453      -15.0264435943
 H        -0.1846655343       11.2761850208      -13.3799895666
 H         1.5859151120        9.6234723016      -18.8959316776
 H         0.0803230907        9.4897586378      -18.3514924046
 H         2.0193096365        7.3304575334      -19.0299743470
 H         0.4587195197        7.7196193265      -19.7818106999
 H         1.0717745106        2.1541541768      -18.3121629053
 H        -0.6347219318        2.1871629908      -17.6953779844
 H         0.7861376535        0.8448774470      -16.2212277491
 H         0.5822078868        2.3936940823      -15.3869237399
 H         3.6022831073        4.5812200289      -14.6944628222
 H         4.9967445578        3.7647226855      -14.1598063406
 H         4.4437364925        4.4353858997      -11.7512452038
 H         3.0550582103        5.2579573769      -12.4927573826
 H         2.9903525587        8.7502733516      -11.4511863059
 H         3.1702478873        8.7264976432       -9.6593668912
 H         1.0236444668        7.8008148460       -9.6322225944
 H         2.0174400351        6.4530869147       -9.9061075294
 H        -2.0197785463        4.5382486874      -10.6033930236
 H        -0.5752798732        3.8527999890      -10.5551142974
 H        -1.0677501505        2.6995083684      -12.7227312932
 H        -2.6765141568        3.0617060184      -12.5777192797
 H        -2.9929318532       -1.6881155124      -10.0148062802
 H        -3.4431987392       -0.1214285268       -9.2749861162
 H        -2.7591542216       -0.8193778713       -7.1353491085
 H        -1.4801166117       -2.0265021480       -7.8445841302
 H        -2.2941399661       -5.7023285809       -4.7978587867
 H        -0.9323676810       -5.2209432229       -5.6114128902
 H        -0.7282344370       -7.7471361961       -5.7839027466
 H        -1.3124072670       -7.3787367710       -7.2040550424
 H        -5.4091056121       -9.1894915922       -6.7708371127
 H        -5.4965567401      -10.9057062221       -7.0140939936
 H        -6.5506421061      -10.2922432129       -9.0038891316
 H        -4.9883052853      -10.0881286792       -9.7349931322
 H        -8.8146390841       -7.3021771609       -8.0886781911
 H        -9.7405632593       -7.0050116961       -9.6209966984
 H       -10.5623101242       -5.1870031020       -8.2971522893
 H        -9.1721162628       -4.3380918772       -9.0840784115
 H        -9.6346003041       -8.2403086531       -6.5813157729
 H       -10.1867738925       -7.8738714964       -4.9151068374
 H        -8.7779785410       -9.9096065270       -4.2497432883
 H        -7.5441164211       -9.1195371940       -4.9439386951
 H       -11.2188587255      -13.5013728756       -5.7129798670
 H       -12.6197581293      -12.6239138568       -5.4771286069
 H       -10.5817305227      -12.9835604153       -3.3501551900
 H       -12.3015468041      -13.4843654834       -3.3188570738
 H       -15.6667456399      -10.7212803857       -1.5695854179
 H       -16.7654700279      -11.5952231154       -2.6689313222
 H       -16.3254410871       -9.9380198352       -3.0724511535
 H       -12.3940103715      -11.6854530067       -0.6438264885
 H       -14.0054624877      -12.3823316399       -0.9787415088
 H       -13.9248880935      -10.7615952282       -0.2938124273
 H       -14.1592190183       -8.8195994010       -2.1675605400
 H       -12.9206301959       -8.9644974643       -3.4239500133
 H       -12.6646715515       -8.8027516092       -1.5351440190
 H        -8.5370926278      -13.3239369245       -7.3470377825
 H        -8.9374600313      -11.9486788178       -8.2949663705
 H       -10.2227019638      -12.9138889470       -7.7740056793
 H        -8.6235268488      -11.9555199629       -4.0858711248
 H        -7.4636041233      -12.5310321730       -5.2330401510
 H        -8.9003709508      -13.4624562844       -4.8567420115
 H        -7.2953117826       -4.5552755276       -4.6680936469
 H        -8.7826176429       -4.7381093044       -3.5597443191
 H        -8.8246793959       -3.4185184789       -4.7116210711
 H       -11.1468878101       -4.6734398093       -5.8442755013
 H       -10.8702948402       -5.5032813104       -4.4232393370
 H       -11.1510911230       -6.4307451026       -5.8423516032
 H        -5.3782933338       -8.1342924821      -11.8464641740
 H        -5.5555002807       -6.5102034429      -11.1680463601
 H        -6.7477007841       -7.1226958365      -12.3644798371
 H        -7.4387951685       -9.7655165796      -10.6236246824
 H        -8.4659429647       -8.6486459608      -11.5974117145
 H        -8.5953267622       -8.8918453695       -9.7446547287
 H        -0.5534494332      -10.1287879593       -5.5722592239
 H        -0.7819009937       -9.4195042233       -7.2299863679
 H        -0.9174126063      -11.1690543187       -6.8477580241
 H        -3.1212409899      -10.3106853619       -4.0903627591
 H        -3.5464774976      -11.6541961479       -5.2496183943
 H        -4.5401090453      -10.1765753827       -5.1574644010
 H        -2.5066517936       -3.6889400253       -4.3803716172
 H        -2.7828844607       -2.1092312495       -4.6407072983
 H        -1.3559892200       -2.7609281556       -5.4493631091
 H        -5.5998811362       -3.9103615608       -6.3475581028
 H        -4.8965484537       -2.7929518712       -5.0996417678
 H        -4.8111037512       -4.6254352542       -4.9652165355
 H        -1.5938188180        0.4164563075      -13.0336568707
 H        -3.0334089748       -0.1371799215      -12.1397881312
 H        -1.5611433505       -1.2366317960      -12.4626620179
 H         0.7424272731        1.0896879777      -10.3244659782
 H         0.3325042728        1.5218113758      -12.0498011644
 H         0.7679802026       -0.1233612770      -11.7423640873
 H        -0.4280106081        5.8696862404       -9.2947249292
 H        -2.0399196797        6.5569394554       -9.6659760486
 H        -0.7340422918        7.6007011506       -9.2663880493
 H        -2.5284251616        7.3535491181      -12.0057397631
 H        -1.2206009892        7.9569710157      -13.0632189868
 H        -1.4122319664        8.7186033902      -11.5314943173
 H         6.5772014181        5.1647269281      -11.2082240568
 H         6.9932191509        6.5374340576      -10.1483021360
 H         7.3804470297        6.4077532817      -11.9713929625
 H         6.6786373297        8.3489560378      -12.7127237095
 H         6.4129030632        8.8783671427      -10.9811681348
 H         5.1505658127        9.0740469799      -12.4280704540
 H         3.2020167935        0.2248474725      -13.2568051867
 H         3.0921818480       -0.4299172417      -14.9795121975
 H         1.7391729014        0.3293777962      -14.1498233207
 H         5.0946061158        2.3104796545      -15.8310441706
 H         5.1827643885        0.5391332588      -15.7096410494
 H         5.4465076175        1.3100361445      -14.2368521266
 H        -1.7234292123        5.2292037207      -19.6567130882
 H        -1.9933997728        5.0466929889      -18.0140682127
 H        -1.6668854606        3.5420045056      -19.0292997853
 H         0.5632485186        3.7700166170      -20.1274192693
 H         1.9791093700        4.3630694051      -19.5451948972
 H         0.9045532764        5.4903640544      -20.4109571405
 H         0.2350307196       11.5482240730      -17.0912502415
 H         1.9750001961       11.3975513451      -17.3968571436
 H         1.3692415685       12.3853229862      -16.0560377286
 H         2.9085986693        9.1286271335      -14.7140009666
 H         2.3808029026       10.5717436631      -13.9076111690
 H         3.4159290841       10.6902671273      -15.3431245286
 Na        0.5674602191        6.6322857812      -14.8563633515
 Na       -5.6313547102       -5.0804276392       -7.9920902389
