232

 C        -0.6786574677       10.7980843362      -14.1277519842
 C         0.1253732318        9.6731024404      -14.8481132795
 O        -0.2188106945        8.5065851337      -14.7250550067
 C         1.4474708667       10.0118654637      -15.6327606210
 C         1.6886578129        8.7825007266      -16.6517452681
 O         2.3555265594        7.8040343284      -16.4130809908
 C         0.9218561052        8.7270281339      -17.9880062242
 C         1.0992151987        7.3470367801      -18.5886348542
 C         0.0621017452        6.3869403959      -18.0944133960
 O        -0.7470880234        6.7517043814      -17.2781287285
 C        -0.0038541868        4.9650504033      -18.5049580006
 C         0.5323994195        4.1321154567      -17.4249181200
 O         0.8725010194        4.6590298474      -16.3542390686
 C         0.6734096805        2.5864012984      -17.6659553115
 C         1.2569837987        1.8125579006      -16.5094179944
 C         2.7797745383        2.1384253752      -16.2758626158
 O         3.3960197460        2.7932523987      -17.0661191160
 C         3.3610309627        1.7281400589      -14.9120951023
 C         3.2633603283        2.9353673473      -13.9282341097
 O         2.2903651792        3.0854630484      -13.2261451142
 C         4.4575063862        4.0409417013      -13.9342848150
 C         4.0965069006        5.1939842207      -12.9532129305
 C         5.0276386426        6.3960300367      -13.0309650160
 O         5.5394624067        6.6738458746      -14.0738206512
 C         5.5628122139        7.1449443010      -11.7519954540
 C         4.5418163041        7.0871057920      -10.6181644656
 O         4.5458923951        6.2854996793       -9.6937729022
 C         3.2381404724        7.9742606920      -10.7885113843
 C         1.9775162415        7.2218452640      -10.2766355416
 C         0.9165456609        6.9997191601      -11.4472712709
 O         1.2928236656        7.0926501260      -12.5642810689
 C        -0.5228574992        6.4951326074      -11.0452210462
 C        -0.9012334093        5.1681064143      -12.0119155895
 O        -0.9935140337        5.2858956123      -13.2534595825
 C        -1.1390781077        3.9056918642      -11.3168011446
 C        -1.5653077560        2.6934526412      -12.1886539651
 C        -1.9566450784        1.4497778792      -11.3625304528
 O        -2.9856723941        1.5579950614      -10.7200390704
 C        -1.1841379762        0.1929761236      -11.4224376091
 C        -1.2912887597       -0.5790118305       -9.8980275411
 O        -0.4359531489       -0.5508427082       -9.0843411959
 C        -2.6513371229       -1.1234028406       -9.5574312008
 C        -2.6690637087       -1.4640087688       -8.1260675072
 C        -3.5154604583       -2.6659756689       -7.6192110732
 O        -4.5617980445       -2.9509183484       -8.1992582896
 C        -3.1621157161       -3.3159660387       -6.2691695796
 C        -3.0844271000       -4.8692504832       -6.4577380063
 O        -3.7711088052       -5.4389919457       -7.2512203227
 C        -2.0157575866       -5.8323383034       -5.6069586809
 C        -1.9911174481       -7.2242980383       -6.2545509039
 C        -3.0193720767       -8.1150660012       -5.7436198371
 O        -4.0066536852       -7.7216311457       -5.1158451304
 C        -2.8190243017       -9.6210706157       -6.1324090631
 C        -3.5997665134       -9.7946172726       -7.5020105127
 O        -3.1340475136       -9.5926818253       -8.6144494771
 C        -5.0701028556      -10.0616737582       -7.3739486675
 C        -5.7719766909       -9.7402233444       -8.6665425731
 C        -6.2732572848       -8.3328734898       -8.8204010984
 O        -5.9834097489       -7.5144952982       -7.9378066654
 C        -6.9789970878       -7.8844280996      -10.0600175033
 C        -7.7734724502       -6.4485764588       -9.7718554845
 O        -7.2640208949       -5.4162445111      -10.1277507505
 C        -9.1373963391       -6.4829584811       -9.0600256195
 C        -9.6001721081       -5.0572617140       -8.6306420024
 C        -8.8370530113       -4.6628943148       -7.2880263450
 O        -7.8393083201       -3.9564992652       -7.3459368673
 C        -9.2375778030       -5.3205340135       -5.9431094031
 C        -8.5693232043       -6.7826801224       -5.8881810156
 O        -7.3951604918       -6.8045129921       -6.2706924580
 C        -9.1161273723       -8.0339908083       -5.1569406789
 C        -8.1923294102       -9.2752242767       -5.1396083787
 C        -8.6837736040      -10.1325584831       -6.3010024717
 O        -8.6320702841       -9.8452738678       -7.4916378920
 C        -9.2335158458      -11.6574646742       -5.9517765853
 C       -10.7740640840      -11.5733943537       -5.7108172208
 O       -11.3628606800      -10.5974922923       -6.1507866793
 C       -11.4948156567      -12.7112641281       -5.0468651856
 C       -11.6205014100      -12.6746341272       -3.4865765711
 C       -11.9058382597      -11.2126760223       -2.9543438859
 O       -11.0624789267      -10.3674783101       -3.1105063749
 C       -13.1668420024      -10.9517554722       -2.1266164165
 C       -14.3962128397      -11.1435314708       -3.1557230294
 O       -14.2619305225      -10.6392110852       -4.2590875538
 C       -15.6270473034      -11.9184064157       -2.7311662027
 C       -13.2641530585      -11.8381686992       -0.8534667191
 C       -13.2814183905       -9.5220535267       -1.7426469289
 C        -9.0676764216      -12.5110903319       -7.2192334009
 C        -8.5050381883      -12.2991456358       -4.7385999030
 C        -8.4071395448       -4.3553416351       -4.9994642071
 C       -10.7214250384       -5.1653889758       -5.6672704816
 C        -5.8776727500       -7.5292483861      -11.1667214329
 C        -7.9097489936       -8.9800617592      -10.6832837988
 C        -1.4150292895      -10.2055224052       -6.2474318959
 C        -3.4392366784      -10.4337776365       -4.9778288201
 C        -1.8934698458       -2.6834241984       -5.6186562382
 C        -4.3211640789       -2.9076334225       -5.2023785542
 C        -1.5916829739       -0.6998323087      -12.6953998657
 C         0.3451438705        0.3159599336      -11.5543490559
 C        -0.6894371507        6.1280341702       -9.5303672345
 C        -1.5803699909        7.6904006040      -11.3220128600
 C         6.8717415579        6.4040208626      -11.5777456201
 C         5.6337619531        8.6700574048      -12.1411247723
 C         2.5560603917        0.6355304584      -14.1764547207
 C         4.7961477440        1.1778201962      -15.1493690299
 C        -1.4958253269        4.5574240064      -18.7060682599
 C         0.7602104646        4.7428009978      -19.8975533311
 C         1.1489504820       11.3325388514      -16.3310280474
 C         2.6965919977       10.0597961587      -14.6894310266
 H        -0.7619002727       10.4217753266      -13.0686331247
 H        -1.5628120474       11.1427045943      -14.6305161734
 H        -0.0665842205       11.6695750348      -14.0578188799
 H         1.3529641449        9.4741183823      -18.6383486380
 H        -0.2416799138        8.9195028780      -18.0283341470
 H         2.1413588437        7.0926246370      -18.4199945394
 H         0.9500394527        7.3603020629      -19.6927750590
 H         1.2393450476        2.4175211043      -18.5961304206
 H        -0.3053894204        2.0831418070      -17.7899839202
 H         0.9979204509        0.7615746916      -16.5064553060
 H         0.7880063097        2.3340696820      -15.7015089151
 H         4.7051479638        4.4295070144      -14.9503018458
 H         5.4109108210        3.6492512736      -13.5383136928
 H         3.8655744130        4.8008995511      -12.0204727424
 H         3.1356880253        5.5870174990      -13.2140924401
 H         3.1871971028        8.0150715574      -11.8397677615
 H         3.4247921491        8.8949021843      -10.2502125543
 H         1.5335039196        7.6539453325       -9.4552145444
 H         2.2705742279        6.1904069911       -9.9488279823
 H        -1.8032480580        3.9672603341      -10.4933035642
 H        -0.2165651251        3.5281770357      -10.8576440937
 H        -0.7634301927        2.4317823272      -12.9396114900
 H        -2.4393671131        2.9452069095      -12.7044711274
 H        -2.8039898180       -2.0380500144      -10.1679726027
 H        -3.3749738959       -0.3945094059       -9.8564829704
 H        -3.0733170580       -0.5363174287       -7.5627718714
 H        -1.7740469182       -1.6261752263       -7.8255691252
 H        -2.3502667169       -5.8234416655       -4.5454720006
 H        -1.0409761579       -5.4190761142       -5.5098772545
 H        -1.0601051318       -7.6684182033       -5.9832738614
 H        -2.0283240619       -7.2530905111       -7.3731330628
 H        -5.4127665246       -9.4200179556       -6.4536158496
 H        -5.2401206581      -11.1665376530       -7.0654069934
 H        -6.5961150406      -10.4345381361       -8.7819040455
 H        -5.0047449086      -10.0049665399       -9.4202126008
 H        -9.1053932686       -7.2869313949       -8.2550962263
 H        -9.9917773596       -6.8309562311       -9.7790539774
 H       -10.7082696642       -4.9539235402       -8.3758089250
 H        -9.3887041634       -4.4429013865       -9.5584349184
 H       -10.1132591818       -8.3684262120       -5.5291602693
 H        -9.2308322610       -7.8002626563       -4.0442560108
 H        -8.2564645202       -9.6656495933       -4.1373289618
 H        -7.1166391808       -9.0000040359       -5.2673930642
 H       -11.1644383536      -13.7337709433       -5.3188844930
 H       -12.5271212553      -12.5786513784       -5.2883615854
 H       -10.6909974668      -13.0536732419       -3.0105789190
 H       -12.4862382938      -13.3311896386       -3.1745587360
 H       -16.3499437786      -11.1540958636       -2.3942572611
 H       -15.6242808363      -12.6492250594       -1.9426975886
 H       -15.9772030454      -12.2577581371       -3.7409642197
 H       -13.1633935470      -12.9511344135       -1.1284873975
 H       -14.0679501663      -11.6252496714       -0.1183941914
 H       -12.3742895354      -11.7783036884       -0.2526719305
 H       -13.8903462102       -9.2996027338       -0.8177585133
 H       -13.6332300954       -8.8273555388       -2.5585884617
 H       -12.2692470903       -9.0921723688       -1.5642431020
 H        -8.1099056695      -12.9054034279       -7.3829125192
 H        -9.4318992010      -12.0734711567       -8.1097570108
 H        -9.6472730634      -13.4750410884       -7.0884237113
 H        -8.8089682666      -11.9111538807       -3.7784583459
 H        -7.4277975398      -12.2865101909       -4.7127481135
 H        -8.6490134417      -13.3674133549       -4.7613050934
 H        -7.3282388565       -4.4003463926       -5.1255712723
 H        -8.5119214915       -4.6735533592       -3.9492769096
 H        -8.7807918664       -3.2581306538       -5.1685746967
 H       -11.1571434090       -4.2808142046       -5.9228986137
 H       -10.9207355054       -5.4684350578       -4.6187592137
 H       -11.2425416456       -5.8329172282       -6.2605322447
 H        -5.3549782585       -8.3757865586      -11.5085741410
 H        -5.2893208979       -6.6907399616      -10.7992236807
 H        -6.4309267170       -7.1561287650      -12.0503694477
 H        -7.2723141487       -9.8072486131      -10.7887624705
 H        -8.1344314277       -8.6908855637      -11.7113854995
 H        -8.7190598410       -9.3501084376      -10.0108030719
 H        -0.8433783124      -10.1389740282       -5.3024221006
 H        -0.7496066011       -9.8121760097       -7.0037963226
 H        -1.4123975013      -11.2027051894       -6.7586435360
 H        -2.9797068810      -10.2218859329       -4.0023879174
 H        -3.3530378825      -11.4532629049       -5.3241948156
 H        -4.4663521479      -10.2168706459       -4.8133668423
 H        -1.5538408325       -3.1952798798       -4.6959134972
 H        -2.0857574728       -1.6222619422       -5.4852384389
 H        -1.0803614193       -2.7499650640       -6.3482071843
 H        -5.2442852573       -3.3454696721       -5.5320934417
 H        -4.2878942055       -1.7880670901       -5.2137281177
 H        -4.1820040074       -3.2042705889       -4.1539777408
 H        -1.6043870410       -0.0814666201      -13.5796697083
 H        -2.5466799790       -1.1351606294      -12.4507296303
 H        -0.8954661863       -1.5425430341      -12.7780134403
 H         0.7042206593        0.8394091582      -10.6324988131
 H         0.5883270681        0.7133731084      -12.5601149446
 H         0.8049205698       -0.6654058225      -11.4636981604
 H        -0.2432801894        5.1459679880       -9.1170898335
 H        -1.7490353252        5.9004460548       -9.3715359035
 H        -0.3583595938        6.9126385072       -8.9156075831
 H        -2.6411972737        7.4069022131      -11.4531043637
 H        -1.3545407086        8.1830162051      -12.2777084949
 H        -1.6044425671        8.3280117166      -10.4689471455
 H         6.5866846014        5.4185104606      -11.2888935257
 H         7.4649582586        6.7451482777      -10.7260973961
 H         7.3922571341        6.3263210348      -12.5719850516
 H         6.4876326438        8.8406282908      -12.9222898474
 H         5.9420202732        9.0661747343      -11.1746917104
 H         4.6641857653        9.0870834092      -12.3604873836
 H         2.9169062764        0.6106115122      -13.1357256738
 H         2.6455005114       -0.3332070301      -14.6276017649
 H         1.5741909848        1.0511998773      -14.2253827488
 H         5.5168776357        1.9929858545      -15.4551664904
 H         4.7027401673        0.2747036214      -15.8310640281
 H         5.1744726768        0.8531265515      -14.2063333297
 H        -2.0149365064        5.2946469451      -19.3953010954
 H        -2.0997572105        4.6014104757      -17.7679526122
 H        -1.5684267638        3.6429826849      -19.2192196023
 H         0.2534409485        3.9690761766      -20.5339635828
 H         1.7870325306        4.5573383199      -19.7285222071
 H         0.6543434914        5.5717162163      -20.5490463575
 H         0.0946210727       11.4632482144      -16.6335785115
 H         1.7957149955       11.4908008965      -17.1798716203
 H         1.3152167523       12.1667021925      -15.6563155551
 H         2.5891820583        9.5123560320      -13.7515625691
 H         2.7093504617       11.0848365092      -14.3238465829
 H         3.6336711327        9.5934515894      -14.9145408847
 Na        0.6320876203        6.3864766176      -14.8095054707
 Na       -6.0190476330       -5.1309896223       -7.9996460561
