232

 C        -0.6346074029       10.6812453605      -14.0757715060
 C         0.1959975516        9.5951822371      -14.8076652880
 O        -0.2886601064        8.5019029137      -14.8695687467
 C         1.4550607100       10.0221510600      -15.5691826859
 C         1.6338722530        8.8113621704      -16.5290271399
 O         2.2418916211        7.7971207533      -16.1327466397
 C         0.9901705885        8.8211712932      -17.9862239226
 C         1.0734963238        7.4221772478      -18.6932342757
 C        -0.0173950359        6.4740019016      -18.0128242261
 O        -0.7602922209        6.8466653836      -17.1679453673
 C        -0.1268436170        4.9234906910      -18.5080314431
 C         0.6238295223        4.0969956708      -17.3393311907
 O         0.9237309186        4.5850054473      -16.3063416876
 C         0.8046105167        2.6508787870      -17.6362749256
 C         1.3580115639        1.8008805942      -16.5370472056
 C         2.8881279284        2.2426676233      -16.2712216059
 O         3.3580985029        2.9227354003      -17.1573442181
 C         3.4438070750        1.7722287332      -14.9330908017
 C         3.2384022696        3.0350300091      -14.0222093065
 O         2.2513761785        3.1503298526      -13.3314884165
 C         4.4059861249        3.9920232925      -13.8736954886
 C         4.1513832319        5.1710236803      -12.9564976420
 C         5.0802083784        6.3898585632      -13.2244356152
 O         5.5753257512        6.6671763143      -14.2953669123
 C         5.5012717470        7.2279816014      -11.8180128419
 C         4.4250284640        7.0819520317      -10.7701461704
 O         4.6215092133        6.3342503570       -9.8725622665
 C         3.1456383694        7.9303712236      -10.8344249970
 C         2.0336934234        7.0725999725      -10.3004652319
 C         0.9633245297        6.8301651504      -11.3650199002
 O         1.3192604093        6.9439574882      -12.5458720154
 C        -0.4999726482        6.4144094669      -11.0368527283
 C        -0.9187811151        5.1641875877      -11.9250229108
 O        -1.0042506391        5.3104733387      -13.1395425328
 C        -1.0689012448        3.8577773170      -11.1894840148
 C        -1.5054397278        2.6836952216      -12.2120047789
 C        -1.9496006377        1.4052737090      -11.4296229327
 O        -3.0294465860        1.3576470310      -10.8646646380
 C        -1.0849946540        0.0158616809      -11.4004459009
 C        -1.4116580773       -0.5812391251      -10.0468028556
 O        -0.4143330638       -0.4497597382       -9.3030863318
 C        -2.7537987753       -1.2013389244       -9.5456607528
 C        -2.7047239168       -1.4405318714       -8.0516291016
 C        -3.6274861190       -2.6962360080       -7.5543552260
 O        -4.6459692282       -2.9910138321       -8.1200473825
 C        -3.1337646551       -3.2863283229       -6.2682001183
 C        -3.0453329644       -4.8473136249       -6.4002280604
 O        -3.8563466896       -5.4261506701       -7.0943470086
 C        -2.0053035977       -5.6626697059       -5.6404517864
 C        -1.8971789417       -7.1017229879       -6.2046920644
 C        -3.0108831633       -8.0851266292       -5.6743801825
 O        -3.9541780151       -7.6948106203       -5.0451688793
 C        -2.8728538934       -9.6788572062       -6.1285376625
 C        -3.6573546100       -9.7047272602       -7.5075204436
 O        -3.0822199900       -9.3864000956       -8.5139378965
 C        -5.1792477490      -10.0894270206       -7.3855054420
 C        -5.9795608400       -9.8068339789       -8.6896499332
 C        -6.3456187855       -8.2749474842       -8.7729752982
 O        -5.8354803932       -7.4762536381       -8.0350799518
 C        -7.0212567407       -7.8403731014      -10.1305452046
 C        -7.8098913139       -6.5284277657       -9.8814190330
 O        -7.2812875531       -5.4195628834      -10.1146196631
 C        -9.0835805237       -6.5711792091       -9.0830962361
 C        -9.6456979971       -5.1291530963       -8.6267865362
 C        -8.8643443141       -4.7225785092       -7.3362643947
 O        -7.9668014404       -3.8945337266       -7.5162128733
 C        -9.2834986057       -5.2757317187       -5.9593336100
 C        -8.5604205410       -6.6425040611       -5.7742034351
 O        -7.4643967251       -6.7749113913       -6.3281249239
 C        -9.2572266971       -7.8861903975       -5.1545283628
 C        -8.1924520630       -9.1875827492       -5.2181414858
 C        -8.6592700172      -10.1099740398       -6.2807087697
 O        -8.6654334832       -9.7850771886       -7.4471674460
 C        -9.2031059001      -11.6124643845       -5.8968094824
 C       -10.8391222848      -11.5083952262       -5.6683039144
 O       -11.4504980367      -10.6518109417       -6.2327813994
 C       -11.6756186394      -12.6800148707       -5.0117204199
 C       -11.5002735290      -12.6393653272       -3.4312359544
 C       -11.8237868164      -11.2015506337       -2.8487788479
 O       -11.0770263915      -10.2791601788       -3.0930093470
 C       -13.1118287995      -11.0066663114       -2.0954381538
 C       -14.4236558000      -11.1726875321       -3.1383839670
 O       -14.3851456730      -10.4633613625       -4.1218562878
 C       -15.5790452732      -12.1172265858       -2.8212577232
 C       -13.2821306395      -11.9746824820       -0.9056725529
 C       -13.1611093063       -9.5304636636       -1.6354865588
 C        -8.8715767567      -12.4129687818       -7.1477081572
 C        -8.4409461708      -12.1382572806       -4.7426082582
 C        -8.4504575834       -4.4478607927       -4.8648594988
 C       -10.8175894125       -5.3294929154       -5.7642777050
 C        -5.8991183773       -7.6173730003      -11.1116841772
 C        -7.9621526663       -8.9894712702      -10.6983005953
 C        -1.4148703505      -10.1806644359       -6.2596336778
 C        -3.4862917726      -10.5316988600       -4.9559846595
 C        -1.7252338214       -2.6770412558       -5.7266201806
 C        -4.3145493681       -2.9088363448       -5.3902109390
 C        -1.6596014879       -0.6243370337      -12.6786600880
 C         0.5512093383        0.1541014625      -11.4721438665
 C        -0.5373509249        6.0571543392       -9.5657180182
 C        -1.4548409664        7.5477206452      -11.3236428770
 C         6.7151763404        6.3778890100      -11.4084683362
 C         5.8255900327        8.7836799674      -12.2086593734
 C         2.5906886025        0.6371593038      -14.2075855763
 C         4.9136738227        1.1717045118      -15.1191202701
 C        -1.5769187957        4.5075945644      -18.7573535522
 C         0.7093229183        4.6155473979      -19.8300253211
 C         1.3789524716       11.3612545983      -16.4024557689
 C         2.6145153534       10.1123993426      -14.6010788120
 H        -0.9377840432       10.2392102216      -13.1352450788
 H        -1.4583817176       10.8683071620      -14.7857911720
 H        -0.2004005827       11.6982621768      -13.9138567601
 H         1.4850936532        9.5853103194      -18.6587939070
 H        -0.0969978459        9.0894439700      -17.9794118931
 H         2.0921483757        7.0729524179      -18.5525529605
 H         0.9200807242        7.4439101035      -19.8025830895
 H         1.6883168931        2.6924963503      -18.3396069581
 H        -0.0033619878        2.1672809192      -18.1948610808
 H         1.4050391783        0.7502163242      -16.7799918771
 H         0.7369798841        2.0074604554      -15.6619056080
 H         4.5690453562        4.4658698679      -14.8368041946
 H         5.3389117780        3.4999680087      -13.6127245988
 H         4.2224133855        4.9255134513      -11.9289435811
 H         3.1448746168        5.4330712682      -12.9712430785
 H         3.0187375290        8.1945581053      -11.8415229559
 H         3.3830085734        8.7335743484      -10.1555254490
 H         1.5475638776        7.4916400529       -9.4070974189
 H         2.4991845045        6.1520032367      -10.0288348799
 H        -1.8917286579        3.9497339973      -10.4326732275
 H        -0.1873648818        3.4506976748      -10.6138794510
 H        -0.6355207350        2.4608056123      -12.8807700826
 H        -2.3359069407        3.0447922512      -12.7668771112
 H        -2.8081977324       -2.1691998682      -10.0381555296
 H        -3.6405000012       -0.5571454340       -9.9287515572
 H        -2.8822938314       -0.5681824330       -7.4703770647
 H        -1.6530792428       -1.8250995742       -7.7738832967
 H        -2.3993756908       -5.5234021305       -4.6410423586
 H        -1.0066801151       -5.1625427236       -5.5451495795
 H        -0.8385262399       -7.4811152749       -5.8593730579
 H        -1.9038281358       -7.0779023800       -7.2859675855
 H        -5.6080534764       -9.4431806991       -6.5907959200
 H        -5.2062902797      -11.0684919155       -7.0288675804
 H        -7.0315027949      -10.3227312869       -8.5572017579
 H        -5.4528297559      -10.2250488313       -9.5017587793
 H        -9.0886390182       -7.4168275940       -8.2504790451
 H        -9.9018612520       -6.8857128283       -9.7507376451
 H       -10.7082666489       -5.1589990719       -8.4149105542
 H        -9.4641774196       -4.3787646309       -9.4924182805
 H       -10.2180479606       -8.1426526828       -5.6234741237
 H        -9.3997821870       -7.7053478350       -4.0845741736
 H        -8.1400514849       -9.5943596273       -4.1558168547
 H        -7.1675224512       -8.7268618704       -5.3854517812
 H       -11.3429620328      -13.7091539227       -5.4064360114
 H       -12.7750472401      -12.4854971373       -5.1154263584
 H       -10.4514820939      -12.8764111876       -3.1066088537
 H       -12.1960007800      -13.3354552337       -2.9273120540
 H       -16.3921128345      -11.4351812980       -2.3935061795
 H       -15.4053809840      -12.8178129044       -2.0573404759
 H       -15.9198052191      -12.5045991085       -3.7841725925
 H       -13.7714285023      -12.9419792397       -1.0509388462
 H       -13.7003870465      -11.4407451877       -0.0144799784
 H       -12.2829599852      -12.3882558894       -0.4931021137
 H       -13.9096799346       -9.1062140113       -0.8734691222
 H       -13.2320782239       -8.8632593929       -2.5465270521
 H       -12.1720299273       -9.2463733842       -1.3600461691
 H        -7.8480894034      -12.4030637187       -7.5036462302
 H        -9.5706245575      -12.1732274699       -7.9746082223
 H        -8.9874496264      -13.4071322686       -6.9616708265
 H        -8.7962817923      -11.6962020458       -3.7285691923
 H        -7.3903748491      -12.0666315061       -4.7655516689
 H        -8.5816189663      -13.2438961986       -4.6982482307
 H        -7.3650947074       -4.7278069469       -4.7540882853
 H        -8.8586113880       -4.5619643178       -3.8341591021
 H        -8.4894661278       -3.3733782227       -5.2168278086
 H       -11.3964992424       -4.5379355013       -6.1884679160
 H       -10.9872647420       -5.3324284122       -4.7059948845
 H       -11.2737618844       -6.2456717664       -6.1512437270
 H        -5.5076355243       -8.6364309293      -11.0762065706
 H        -5.1806745271       -6.8830021863      -10.7084166488
 H        -6.1299636806       -7.3970404018      -12.1272033176
 H        -7.4141602044       -9.9835882185      -10.5777728962
 H        -8.2066379982       -8.8921562216      -11.6860118618
 H        -8.7547543939       -9.0870062404       -9.9783844337
 H        -0.8835550746      -10.1026067251       -5.2999515562
 H        -0.7131364999       -9.6499318316       -6.9628013667
 H        -1.3285781767      -11.1142850350       -6.7424916199
 H        -2.9733020889      -10.3197184379       -4.0237980669
 H        -3.5384716170      -11.5887499918       -5.1880162576
 H        -4.5069055076      -10.1259687756       -4.7444885817
 H        -1.5110359245       -3.0099834154       -4.6974924636
 H        -1.7792023752       -1.5733444896       -5.8091529466
 H        -0.8863629059       -2.9937842779       -6.3466960824
 H        -5.2215483520       -3.4034736986       -5.8048189380
 H        -4.3521233318       -1.7988986841       -5.3370250252
 H        -4.1740000548       -3.2652695724       -4.3135138684
 H        -1.3361442325        0.0933471276      -13.4574063612
 H        -2.8056962419       -0.7283287734      -12.6315067978
 H        -1.2323139099       -1.5920212228      -12.8511277842
 H         0.7028320086        1.0865521548      -10.9490311619
 H         0.8373173509        0.1643480571      -12.5331244050
 H         1.1394633243       -0.5296976404      -10.8890916528
 H         0.2177270822        5.3226036289       -9.3565222494
 H        -1.4305376824        5.4804530607       -9.3080220202
 H        -0.4379188550        6.9055280547       -8.9075177370
 H        -2.4805117979        7.2933920606      -11.3822989683
 H        -1.2476141348        7.9963133765      -12.3018315139
 H        -1.4382154867        8.2357114067      -10.4209239061
 H         6.2719479941        5.3860892212      -11.0549217176
 H         7.1556533571        6.7230735823      -10.4646497879
 H         7.4098128728        6.2405247601      -12.1876792896
 H         6.4367754427        8.8393983068      -13.0457327646
 H         6.3499901003        9.1443434943      -11.3149950057
 H         4.8222822933        9.3441977294      -12.2058038176
 H         3.0488016870        0.5512405743      -13.1929531991
 H         2.6255870199       -0.3146679969      -14.6475511836
 H         1.6047229941        1.1433770781      -14.1761483132
 H         5.5109273002        1.8496201249      -15.6486010020
 H         4.6902384841        0.2189294020      -15.7157187129
 H         5.4870526781        1.0054656111      -14.1817951909
 H        -2.1567959479        5.1055701958      -19.5318303476
 H        -2.0811055788        4.6633546997      -17.8517732953
 H        -1.6938120837        3.4347971742      -19.1037387890
 H         0.3891014210        3.7963595296      -20.3965379332
 H         1.7759638747        4.6476341626      -19.5323767638
 H         0.5430563746        5.3721009682      -20.5578292848
 H         0.3903682547       11.6777650960      -16.7429341013
 H         2.0196458229       11.3147123062      -17.2630925271
 H         1.7560897570       12.1944122263      -15.8332299155
 H         2.7118153073        9.4509476926      -13.7063630737
 H         2.5917522423       11.0846334649      -14.2225695141
 H         3.5995578729        9.7969411254      -14.9812853892
 Na        0.5314517068        6.3601585269      -14.8829605607
 Na       -6.0490287564       -5.1311818921       -7.9564393056
