232

 C        -0.6480874687       10.7135602839      -13.9918405937
 C         0.0449161211        9.6526213755      -14.9040079542
 O        -0.3690506242        8.5065275349      -14.8490986121
 C         1.5321166755       10.0349910440      -15.6424674336
 C         1.7001979521        8.7536377863      -16.5127440859
 O         2.1029457375        7.7655210763      -15.9096467858
 C         1.1403990839        8.8167817076      -17.8811357778
 C         0.8885399264        7.4664891516      -18.6591662893
 C        -0.0861262452        6.5414610399      -18.0870186627
 O        -0.7511322406        6.8899644540      -17.0778465998
 C        -0.1262009010        5.0370287687      -18.4830959766
 C         0.5867775027        4.0451817372      -17.3266294833
 O         0.9354758168        4.4357760739      -16.2297284345
 C         0.8680548909        2.6192274275      -17.8089163393
 C         1.3950901562        1.8430558410      -16.6457954517
 C         2.8393995095        2.2323855326      -16.2631608267
 O         3.5220335950        2.9334432698      -16.9812846975
 C         3.4428854797        1.8008481925      -14.9103035414
 C         3.3819406493        3.0708561475      -13.9461744336
 O         2.2337419557        3.2414639275      -13.5164849857
 C         4.4764126830        4.0674705671      -13.9440900052
 C         4.2482717972        5.2475448529      -13.0212549967
 C         5.1242379788        6.4477218239      -13.2812080571
 O         5.5068794841        6.6582640836      -14.4338781575
 C         5.5188901670        7.1872215633      -11.9920101383
 C         4.4294289836        7.1400508561      -10.8742439689
 O         4.6024036796        6.3275661989       -9.9910143709
 C         3.0644811002        7.9152160149      -10.8176151858
 C         1.9567103553        7.0306755103      -10.3144753967
 C         1.0223192232        6.6558574479      -11.4390135367
 O         1.3036263781        6.7934824274      -12.6525877268
 C        -0.4139667974        6.2788226687      -10.9493888923
 C        -0.8392119017        5.1184660116      -11.8842712732
 O        -0.9783319260        5.3018224469      -13.0558752263
 C        -1.0806661357        3.7470967743      -11.1655675197
 C        -1.3648565027        2.5660434415      -12.1897988706
 C        -1.8808524198        1.3986440390      -11.4382194651
 O        -3.0344888949        1.3102689303      -11.0589581982
 C        -1.0520024528        0.0915061471      -11.4865042707
 C        -1.3607122228       -0.6034263595      -10.0846032110
 O        -0.5836367814       -0.5314015004       -9.1282351725
 C        -2.7381074608       -1.2563534565       -9.7835607282
 C        -2.7239915731       -1.4728021653       -8.2378521508
 C        -3.5706821026       -2.6133128805       -7.6281832023
 O        -4.5913579959       -2.9986317990       -8.1293437260
 C        -3.1537475120       -3.2236465934       -6.2249725241
 C        -3.0869141190       -4.8672260404       -6.3285564742
 O        -3.9626469940       -5.4431844601       -6.9759542017
 C        -2.0118676123       -5.6484077762       -5.6445249214
 C        -1.7848150765       -7.0790520059       -6.1032886376
 C        -2.9074825863       -8.0967648530       -5.6465258525
 O        -3.8419086389       -7.7485854278       -4.9790145414
 C        -2.9096430218       -9.5772685828       -6.0273764010
 C        -3.6900740043       -9.6024046247       -7.3717371248
 O        -3.1198338730       -9.2384895831       -8.3747661359
 C        -5.1841983728      -10.0682687331       -7.3788099946
 C        -6.1193268428       -9.7763517398       -8.6033902687
 C        -6.2648804511       -8.3256357230       -8.8724527494
 O        -5.6715086016       -7.5022409893       -8.2247792512
 C        -7.0077747427       -7.9398831651      -10.1321462441
 C        -7.8006581503       -6.5381436003       -9.8441107727
 O        -7.2442029410       -5.4714596242      -10.1057960701
 C        -9.2095689387       -6.7030917009       -9.2053020174
 C        -9.7199943048       -5.3443550651       -8.6532948681
 C        -8.9318943915       -4.7014452136       -7.4216663342
 O        -8.0743701120       -3.8622750300       -7.5607625051
 C        -9.3164375389       -5.1946228925       -5.9352602783
 C        -8.5320807774       -6.6562956178       -5.9442788439
 O        -7.4152797326       -6.7317534044       -6.3003297169
 C        -9.2926775195       -7.7352980954       -5.1313104650
 C        -8.3853308751       -9.0562485792       -5.1553280965
 C        -8.8269046893      -10.0631346204       -6.2380134212
 O        -8.7215887301       -9.6971443269       -7.4076050382
 C        -9.1794569994      -11.5841146970       -5.8608147775
 C       -10.8531616432      -11.4558326080       -5.7854311860
 O       -11.5355136109      -10.6025340707       -6.3239915266
 C       -11.6087254886      -12.5431191153       -4.9242972993
 C       -11.4079863162      -12.5811296219       -3.3965556292
 C       -11.7941419044      -11.2428688668       -2.8561339373
 O       -11.0381851993      -10.2966481952       -3.0989426990
 C       -13.1474593203      -11.0159247946       -2.0986473154
 C       -14.3894380959      -11.1412036876       -3.0783804190
 O       -14.4989519236      -10.3673142917       -3.9860915000
 C       -15.5321596763      -12.2301181599       -2.9414677355
 C       -13.2095681495      -12.0568308379       -0.9163226372
 C       -13.1257343169       -9.5407185940       -1.4761817409
 C        -8.8013504696      -12.4167509394       -7.1388992199
 C        -8.3672148594      -11.9945242019       -4.6059193592
 C        -8.7050277904       -4.4396449587       -4.7275908258
 C       -10.7786430122       -5.4168818324       -5.7664438766
 C        -5.8397994937       -7.6675728988      -11.1725769469
 C        -8.1215995239       -8.9293876890      -10.6978986106
 C        -1.4801675280      -10.0220711193       -6.3428014749
 C        -3.6113924794      -10.5336360182       -5.0002191436
 C        -1.7474901140       -2.7944939328       -5.7033053515
 C        -4.2938039512       -2.9627525196       -5.2541588877
 C        -1.7168399499       -0.7369031336      -12.7069683933
 C         0.4344625221        0.1952857745      -11.6236539568
 C        -0.4767948997        5.9393353215       -9.3912091348
 C        -1.3347668015        7.4781450871      -11.3750708476
 C         6.7515930847        6.4946793294      -11.3134389700
 C         6.0752921562        8.6319348145      -12.3101840571
 C         2.7151297396        0.5623702923      -14.3437850297
 C         4.9492826573        1.3461276124      -15.0879035587
 C        -1.5532428010        4.5468258943      -18.6994824036
 C         0.6790695517        4.6450262302      -19.7621969281
 C         1.5121411798       11.3304519419      -16.4428616239
 C         2.5827684646       10.0886316989      -14.5161796024
 H        -1.0100386068       10.2092277923      -13.1157270769
 H        -1.4202486306       11.1972624152      -14.6288023691
 H         0.0185438183       11.5791825345      -13.7412729576
 H         1.7423314445        9.3853967445      -18.6494719212
 H         0.2469322994        9.3425437013      -17.8017790576
 H         1.8724871980        6.9100758567      -18.6449482435
 H         0.7380070627        7.6474824350      -19.7176102190
 H         1.6616836480        2.5768139000      -18.5637327013
 H        -0.0371810043        2.1867881974      -18.2499952781
 H         1.6088885042        0.7624821767      -16.7983417185
 H         0.7409414905        1.9972875941      -15.7538996481
 H         4.5608775535        4.4413620087      -14.9571101899
 H         5.4134838208        3.5858366524      -13.6877213849
 H         4.4100545147        4.9513518903      -11.9492283004
 H         3.1795187267        5.4669587882      -12.8962814231
 H         2.8905176833        8.3117538554      -11.8490095946
 H         3.2349146896        8.6697583248      -10.0529267216
 H         1.2090536967        7.6181572752       -9.6077996879
 H         2.3522951080        6.1862509596       -9.8017316649
 H        -2.0136535572        3.8174009946      -10.4849702184
 H        -0.2764039518        3.3138421955      -10.5126852534
 H        -0.4572350076        2.3631623936      -12.6866859536
 H        -2.2019004333        2.9076245509      -12.9013699895
 H        -2.9978651054       -2.1134069252      -10.4190975427
 H        -3.4841829513       -0.4395998425       -9.9861190679
 H        -3.1995268716       -0.6489749273       -7.7992064309
 H        -1.6806468850       -1.5808663763       -7.6393435380
 H        -2.1717019346       -5.3275601493       -4.6152368447
 H        -1.0549527190       -5.0930118520       -5.8787404420
 H        -0.7449969709       -7.3615441476       -5.7278711427
 H        -1.7597181074       -7.0037683643       -7.2126699874
 H        -5.6458423568       -9.7238781145       -6.5501745066
 H        -5.0189055396      -11.1068385584       -7.3103484984
 H        -7.1250340010      -10.1638530605       -8.3973920008
 H        -5.7011272666      -10.2946812392       -9.4867698429
 H        -9.1713339952       -7.3792485230       -8.3565154568
 H        -9.9864619860       -7.0931029150       -9.8117070016
 H       -10.7348999487       -5.4945657712       -8.3266777484
 H        -9.7390031299       -4.5721636067       -9.3878382267
 H       -10.1853556828       -8.0140460265       -5.6683270676
 H        -9.5115345940       -7.3280516096       -4.1754431406
 H        -8.2182160343       -9.4111257206       -4.0952807477
 H        -7.3913791856       -8.6413794339       -5.4692530879
 H       -11.1124212964      -13.4849679072       -5.2374427603
 H       -12.7523618109      -12.5750069706       -5.0299724409
 H       -10.3583196647      -12.7370314672       -3.0846962878
 H       -12.0323754877      -13.3364992065       -2.9618358936
 H       -16.3393515927      -11.8207771547       -2.3495536340
 H       -15.0875882855      -13.0506989126       -2.3169191641
 H       -15.9051937040      -12.5131801936       -3.8943134427
 H       -13.7950168511      -12.9417313607       -0.9967258275
 H       -13.4754932361      -11.5797434524        0.0316519033
 H       -12.1869093965      -12.4779880958       -0.6847553922
 H       -14.0359565271       -9.1629604937       -1.0603760026
 H       -12.8561172234       -8.8144442350       -2.2102945764
 H       -12.2370232380       -9.4429327800       -0.8073327972
 H        -7.8214059100      -12.2073063794       -7.6063694293
 H        -9.5697471444      -12.3930496697       -7.8979576060
 H        -8.6613669813      -13.4593012858       -6.8779385052
 H        -8.5381693202      -11.4227603353       -3.6956585952
 H        -7.2474135158      -12.0447800651       -4.7956620935
 H        -8.5949298509      -13.0733909565       -4.3695392135
 H        -7.6681346588       -4.7794301519       -4.4481176003
 H        -9.3147675129       -4.5602470741       -3.8122215535
 H        -8.5933603819       -3.4194064157       -4.9847383229
 H       -11.3696571966       -4.5272465802       -6.2437005905
 H       -11.1241273395       -5.3891472113       -4.7677842518
 H       -11.1890495870       -6.3563128333       -6.2747566444
 H        -5.3010326965       -8.6411545717      -11.0833717189
 H        -5.2521083143       -6.9186080514      -10.6586660500
 H        -5.9917898142       -7.4115026379      -12.2201559710
 H        -7.7203347282       -9.9305909512      -10.9085671468
 H        -8.5885413415       -8.5289327953      -11.6236545967
 H        -8.8190501061       -9.0493647971       -9.9063719858
 H        -0.7582479586       -9.8227013069       -5.5905536720
 H        -1.0492922923       -9.4517304072       -7.1754563533
 H        -1.3848936627      -11.0172856329       -6.7247697669
 H        -3.0104289850      -10.5781363323       -4.0909279273
 H        -3.7810434966      -11.5432766800       -5.4075618788
 H        -4.5577464831      -10.0497746270       -4.6659568263
 H        -1.6826089354       -3.1546459741       -4.6870724104
 H        -1.7295660119       -1.7048723456       -5.7084112630
 H        -0.8554368619       -3.1628661609       -6.2312063174
 H        -5.2001574324       -3.5307162978       -5.6651378884
 H        -4.4834779009       -1.8913958156       -5.0758256838
 H        -4.0252503997       -3.3973940073       -4.2673914367
 H        -1.2928655250       -0.2891335972      -13.6380425813
 H        -2.8164989348       -0.6603396412      -12.6844080007
 H        -1.4047060815       -1.7961190669      -12.6087902748
 H         0.7952481071        1.1637420800      -11.3462919601
 H         0.7307467734       -0.1262530103      -12.5886532032
 H         0.8543973546       -0.4289262870      -10.8290919751
 H         0.3231675750        5.3402985587       -9.1269126508
 H        -1.3506340308        5.3852460150       -9.1051895575
 H        -0.4754881711        6.8994187715       -8.7908068262
 H        -2.3865374597        7.2643935244      -11.1721844554
 H        -1.2706577633        7.5928162557      -12.4471722893
 H        -1.1831564444        8.3694520303      -10.7448814581
 H         6.5181582341        5.4888960987      -10.9341812806
 H         6.7740060158        7.0380979290      -10.3613561168
 H         7.7281356203        6.5987490419      -11.7853610878
 H         6.6119140010        8.6275690046      -13.2142957980
 H         6.7311069451        8.9159103453      -11.4874842810
 H         5.2056573022        9.2692713903      -12.2544197692
 H         3.3213359188        0.1117560652      -13.5741518427
 H         2.7132945355       -0.2354393091      -15.1383414085
 H         1.7207099934        0.9102618879      -14.0762380916
 H         5.3853385262        2.0819629609      -15.7463586340
 H         4.9768793554        0.4188575994      -15.5478232129
 H         5.5825769648        1.4813723299      -14.1712681314
 H        -2.0626994677        4.8845008376      -19.5463980653
 H        -2.0896989174        4.8882446408      -17.7943095447
 H        -1.6524014106        3.4167774391      -18.7556519545
 H         0.5145291459        3.6453166515      -20.0291835424
 H         1.7202047900        4.9510709412      -19.6927097439
 H         0.1933719397        5.0823763169      -20.6531353096
 H         0.5815479541       11.5129143517      -16.9304782921
 H         2.2759873108       11.4338962920      -17.2275523178
 H         1.6882107094       12.1794469197      -15.7871181029
 H         2.8080254356        9.1886040124      -14.0107549934
 H         2.4592913581       10.8806376615      -13.7768165402
 H         3.5914501286       10.1384172722      -14.9551724809
 Na        0.4085730354        6.3519111700      -14.9045199762
 Na       -6.0366386526       -5.0906748727       -7.8869097811
