232

 C        -0.5806836230       10.8668584858      -14.0424338507
 C         0.0852351825        9.7984910104      -14.8122938990
 O        -0.4339471850        8.6755762449      -14.8261376397
 C         1.4319755452        9.9972591282      -15.5595065761
 C         1.6256079661        8.5904898280      -16.4464200905
 O         2.0232080597        7.6186179179      -15.9003013221
 C         1.2780559626        8.8136172916      -17.8883572576
 C         0.9656818342        7.4791784110      -18.6561269980
 C         0.0362108360        6.4829852686      -17.8767883076
 O        -0.8318486549        6.8288870708      -17.0572082634
 C        -0.0642941333        5.0108751852      -18.3807580878
 C         0.5776460364        4.0571362627      -17.4310166740
 O         0.7983969595        4.3747865118      -16.2516180531
 C         0.9490242219        2.6454602701      -17.8300636437
 C         1.4714345898        1.7789824642      -16.6634925963
 C         2.9463355868        2.2136816435      -16.2964408549
 O         3.6458975051        2.9893713945      -16.9036717738
 C         3.5442951225        1.7314349929      -14.8942773350
 C         3.2999382912        3.0735192570      -14.0311888984
 O         2.2517473810        3.3950739127      -13.5306882701
 C         4.4817020978        4.0347909049      -14.1052236840
 C         4.2494071945        5.1454369617      -13.0392022757
 C         5.2323757003        6.3926021639      -13.2721168031
 O         5.4491666301        6.7952781691      -14.3820703053
 C         5.6369684129        7.2541952081      -11.9530501559
 C         4.5095223732        7.1210222459      -10.9607727620
 O         4.4945647900        6.2811257398      -10.0293739335
 C         3.2132049046        8.0431270768      -10.9649186420
 C         1.9984068944        7.2122290652      -10.3771526336
 C         1.0166830465        6.6285437032      -11.4510020573
 O         1.2917891538        6.5929362910      -12.6078632056
 C        -0.3782290593        6.1174927866      -10.9444421008
 C        -0.8480747062        4.9905308143      -11.8226900138
 O        -0.9498421176        5.1201354795      -13.0309412854
 C        -1.1239923872        3.6751529086      -11.1977472978
 C        -1.2323430492        2.5543260991      -12.2451982817
 C        -1.9544457359        1.3124298652      -11.6407959798
 O        -3.0696629980        1.4558630741      -11.1950817794
 C        -1.0496298144       -0.0758022467      -11.4773517060
 C        -1.3642571275       -0.6372136023      -10.0264232126
 O        -0.5371697306       -0.5088869085       -9.2074241698
 C        -2.7839034544       -1.3504037945       -9.8158396119
 C        -2.8567726473       -1.5063871181       -8.2875594595
 C        -3.6005746923       -2.6532341821       -7.7235651336
 O        -4.6160918788       -3.0988821436       -8.2425959636
 C        -3.1827526611       -3.3544672165       -6.1697835495
 C        -3.1304088033       -4.9127751512       -6.3535274623
 O        -4.0450464846       -5.4983094086       -6.8409918060
 C        -1.9134624983       -5.7060415088       -5.6663893020
 C        -1.8209687328       -7.1911532969       -6.0231051562
 C        -2.9318166150       -8.0269471901       -5.4712947129
 O        -3.8267054261       -7.5732863712       -4.7489618872
 C        -2.9195845626       -9.4913520137       -6.0460641852
 C        -3.7474617032       -9.5259814263       -7.3953143436
 O        -3.2597809181       -9.0738383115       -8.4155380658
 C        -5.1724959225      -10.1410196261       -7.3089471598
 C        -6.0128100355       -9.8694703085       -8.5414179546
 C        -6.1543682596       -8.3616132652       -8.9264453197
 O        -5.5418793025       -7.4444347309       -8.3721906333
 C        -7.0682609319       -7.9262093074      -10.1903583260
 C        -7.7818838236       -6.5782646085       -9.8146552056
 O        -7.2388455836       -5.5294761671      -10.0008237020
 C        -9.1477608823       -6.6764467873       -9.1983815051
 C        -9.7567115548       -5.3986176227       -8.5900544677
 C        -9.0564266553       -4.7074906156       -7.4782699637
 O        -8.1745793206       -3.8581154086       -7.6222680004
 C        -9.3681314369       -5.2412008798       -5.9758746698
 C        -8.5339278576       -6.6381755219       -5.8767743234
 O        -7.4008001896       -6.6367592735       -6.3252687532
 C        -9.1847752600       -7.7176115287       -5.2010159085
 C        -8.5458336606       -9.0117221744       -5.0594454354
 C        -8.8201555898       -9.9734782044       -6.2077574885
 O        -8.9218323877       -9.5899799570       -7.3654187610
 C        -9.2456364631      -11.3815667876       -5.8318822286
 C       -10.7323422617      -11.4457820607       -5.6917392476
 O       -11.3757994723      -10.6848260370       -6.3713400067
 C       -11.4813071987      -12.6139292920       -4.9667046563
 C       -11.4041876504      -12.6164774974       -3.4593325098
 C       -11.7904865975      -11.1610504480       -2.9120196710
 O       -11.0471200388      -10.2150383115       -3.0402710986
 C       -13.1160987207      -11.0117818150       -2.0044505163
 C       -14.3308181058      -11.0841173035       -3.0258577020
 O       -14.5539475082      -10.2213899175       -3.8409930079
 C       -15.3672185038      -12.3220884974       -3.0296188640
 C       -13.0943216979      -12.0800682661       -0.8881273300
 C       -13.1712529375       -9.6753428152       -1.3698849720
 C        -8.8931395236      -12.3634694027       -6.9929946536
 C        -8.5093400058      -11.8665589306       -4.6473374717
 C        -8.9126256536       -4.3574225262       -4.8440716377
 C       -10.9036437355       -5.4483919229       -5.8274033256
 C        -5.9406706775       -7.6964857037      -11.3095182192
 C        -8.0927148197       -8.9131526921      -10.7066173446
 C        -1.4619690541      -10.0240849021       -6.4316717640
 C        -3.5581609063      -10.4262577734       -5.0235090392
 C        -1.8570377945       -2.7482869600       -5.6594282542
 C        -4.2510158647       -3.0103993395       -5.0763839428
 C        -1.6881347416       -0.9469079620      -12.5983609989
 C         0.4040874771        0.1971998613      -11.7594268882
 C        -0.5145576340        5.9038615776       -9.4454345950
 C        -1.2371829860        7.4233032269      -11.3191919914
 C         6.9417859333        6.5206404570      -11.3669841397
 C         6.1618228634        8.6578114446      -12.4636846780
 C         2.8176343548        0.4492667484      -14.3949179785
 C         5.0995677196        1.5299398659      -15.1182461121
 C        -1.6005362417        4.5867331537      -18.5154992555
 C         0.6270026103        4.9074910111      -19.8440957869
 C         1.4890568245       11.2702782227      -16.3789519170
 C         2.4845074001       10.0553390818      -14.4457650633
 H        -1.1228838338       10.3882984041      -13.1895805211
 H        -1.1981296889       11.4901538598      -14.6854635107
 H         0.1605824665       11.5541659847      -13.6980712507
 H         1.9696413880        9.2777549945      -18.5169240793
 H         0.3678414421        9.4081495048      -17.9460997885
 H         1.8912821230        7.0247231551      -19.0663943331
 H         0.4264970901        7.7432433486      -19.5703731309
 H         1.6009650469        2.4959431648      -18.6684859458
 H        -0.0316168542        2.2653490565      -18.1711051440
 H         1.6746223894        0.6958462914      -16.8544720437
 H         0.8897018408        1.8937214206      -15.7280985875
 H         4.6758950804        4.5626416854      -15.0526242545
 H         5.3608300357        3.4678737703      -13.8019867594
 H         4.0957512756        4.7912021863      -11.9807067333
 H         3.1539522766        5.5262245864      -13.1426504261
 H         3.1014040559        8.4429335479      -12.0231075392
 H         3.4754157489        8.8460568018      -10.2082276821
 H         1.4028282567        7.7377946418       -9.6134095401
 H         2.4660398205        6.2736141840       -9.8879400652
 H        -2.0237162041        3.6458859099      -10.5766664310
 H        -0.2717831235        3.4004125346      -10.5582645759
 H        -0.2317729577        2.5171140789      -12.6923323187
 H        -1.9860102697        2.9954034821      -12.9515220681
 H        -2.6272324432       -2.3556220055      -10.2693289158
 H        -3.5699259750       -0.8814644837      -10.3100491419
 H        -3.2982340255       -0.6115890410       -7.7102378901
 H        -1.9518051738       -1.6613659097       -7.8859684133
 H        -2.1730338011       -5.5179252365       -4.5770365605
 H        -0.9787026726       -5.1780959647       -5.7642009945
 H        -0.9492956781       -7.5074724946       -5.5392005084
 H        -1.7802733187       -7.3802547152       -7.1432376658
 H        -5.6777073459       -9.6697905149       -6.4703747730
 H        -4.9663093411      -11.2376522767       -7.1613993715
 H        -6.9520469135      -10.2695571244       -8.4513469537
 H        -5.4333495415      -10.3170946374       -9.4051889636
 H        -9.3183599441       -7.4097710657       -8.5398547883
 H        -9.8711192366       -6.9007094946       -9.9618340304
 H       -10.7879733465       -5.6619070730       -8.3715263154
 H        -9.7780227899       -4.6285219540       -9.2724027449
 H       -10.0867832873       -7.9236330378       -5.7526217900
 H        -9.4048639603       -7.3071503359       -4.2140818325
 H        -9.0744991268       -9.3750639159       -4.2020203189
 H        -7.5348271452       -8.8270616983       -4.7292517240
 H       -11.0363619100      -13.5070237112       -5.3346541577
 H       -12.5495688299      -12.5519716135       -5.1445166178
 H       -10.4262351345      -12.7338463103       -3.0534521824
 H       -12.0401043072      -13.3789176966       -3.0348752626
 H       -16.1027855414      -12.2023663463       -2.2771692376
 H       -14.7640289381      -13.2118069946       -2.7706769224
 H       -15.9116612544      -12.3683980620       -3.9824387089
 H       -13.5577715256      -13.0108832008       -1.2622914277
 H       -13.5892516347      -11.8552648311        0.0188117115
 H       -12.1223965264      -12.3329759153       -0.6330199925
 H       -14.1641665326       -9.4186685977       -1.2947656847
 H       -12.7914372275       -8.9208110715       -1.9894557131
 H       -12.5611920601       -9.5659766034       -0.4605972032
 H        -7.8771171349      -12.2102219695       -7.3373367828
 H        -9.5106636894      -12.4931714927       -7.8507838014
 H        -8.7434215730      -13.4148723024       -6.4899090927
 H        -8.6742770762      -11.3929458279       -3.7224108126
 H        -7.3831067269      -11.8473969254       -4.8531359653
 H        -8.7447116661      -12.9279476414       -4.4870190352
 H        -7.9090750472       -4.4862221406       -4.5187476694
 H        -9.5406102594       -4.5629280157       -4.0048063865
 H        -8.9638317182       -3.3154720547       -5.1032918552
 H       -11.2306253989       -4.3732463296       -5.9117094529
 H       -11.3513817335       -5.7080161733       -4.7997062689
 H       -11.4829028217       -6.0286284692       -6.5823300441
 H        -5.3045489012       -8.5794698933      -11.3903527376
 H        -5.4085196855       -6.8403585604      -10.8991504333
 H        -6.3296986360       -7.4038623974      -12.3287674495
 H        -7.5530137317       -9.6101409907      -11.2447398697
 H        -8.8564144607       -8.4254825964      -11.4339507563
 H        -8.6163354467       -9.4127951690       -9.8594096827
 H        -0.6898568474       -9.7050252684       -5.7712502478
 H        -1.0660857885       -9.6143854871       -7.3176662628
 H        -1.3619400301      -11.1420732297       -6.5324593710
 H        -2.8031807252      -10.6437580899       -4.2255471364
 H        -3.8887300110      -11.4032277407       -5.4311397457
 H        -4.3649852366       -9.8921940615       -4.5595072001
 H        -1.6363793193       -3.2466473410       -4.7260882546
 H        -2.1235064877       -1.7381954963       -5.4338752283
 H        -0.9465282917       -2.8052964095       -6.2598372072
 H        -5.2495728081       -3.3656489609       -5.3563906235
 H        -4.2438832361       -1.9035186250       -4.9305898547
 H        -3.9386948762       -3.4196872439       -4.1395773972
 H        -1.3321944021       -0.5475210874      -13.5501309237
 H        -2.7323893606       -0.8319360041      -12.5488389804
 H        -1.3974045373       -2.0314895572      -12.4974780729
 H         0.7169291778        1.2496512401      -11.7674073391
 H         0.6054573058       -0.2280359907      -12.7284225305
 H         0.9534338267       -0.3111096955      -10.9853483831
 H         0.2454924345        5.1806537044       -9.0135045881
 H        -1.5176210451        5.6020343421       -9.1526203268
 H        -0.4136905029        6.8886941697       -9.0150565513
 H        -2.2361291235        7.4494830575      -10.8130938084
 H        -1.4204036109        7.3870451564      -12.3882346622
 H        -0.7921735467        8.2935152457      -10.9764914537
 H         6.7234606039        5.5045044259      -11.3041310511
 H         7.1174731266        6.7825754805      -10.3199326224
 H         7.9210369118        6.7949040878      -11.9171561448
 H         6.6727433591        8.3833132634      -13.4551570602
 H         6.8478823063        9.1414878585      -11.8217895373
 H         5.3223356136        9.2039982979      -12.6254107251
 H         3.3990311621       -0.1821433766      -13.7580645857
 H         2.6879373734       -0.2136776525      -15.3004350092
 H         1.8879862238        0.8125807646      -14.0408893811
 H         5.4607983390        2.3760281186      -15.7745545916
 H         5.2893595353        0.6540362495      -15.6932205055
 H         5.6451509532        1.6786951174      -14.2425770057
 H        -1.9174416627        4.9460599797      -19.4679886650
 H        -2.2572814554        5.0939465285      -17.7400975638
 H        -1.8428895222        3.5652918258      -18.5221459970
 H         0.5184630612        3.8762529731      -20.2862023709
 H         1.6255127244        5.2463543441      -19.8634862900
 H         0.0072698469        5.4758454074      -20.5621552727
 H         0.8233038271       11.3288509723      -17.2384789356
 H         2.4855371401       11.4200181029      -16.8137881461
 H         1.3526225764       12.1651901287      -15.7671651861
 H         2.9094151453        9.1127832319      -14.2811529956
 H         2.2661356722       10.4974069753      -13.4406834887
 H         3.4156036533       10.5028775152      -14.7709163356
 Na        0.2777549505        6.2986687687      -14.8794708008
 Na       -6.0402151544       -5.0590954431       -7.8307515777
