232

 C        -0.5130403663       11.1481624137      -14.1155830833
 C         0.0152532811        9.7798961232      -14.7034559388
 O        -0.6051084575        8.7609309472      -14.7010091681
 C         1.4831826992        9.8812734058      -15.4840247707
 C         1.5988258953        8.6628475710      -16.3659663050
 O         1.9302350781        7.5469042408      -15.9669855566
 C         1.2887379928        8.7842970238      -17.8459819505
 C         0.9985104831        7.3905906511      -18.5736046364
 C        -0.0449323829        6.4800628164      -17.8997221048
 O        -0.7273267436        6.8476248005      -16.9989488729
 C        -0.0670412832        5.0498883970      -18.4799480618
 C         0.6053494002        4.0436287496      -17.3571757438
 O         0.6599216453        4.3563259663      -16.2119482889
 C         1.0605136322        2.6106912506      -17.8187098467
 C         1.6562697629        1.7242016811      -16.7076438635
 C         3.0757594640        2.2662561847      -16.3051821409
 O         3.6161299341        3.0622703134      -17.0334605475
 C         3.6533743604        1.7653769316      -14.9831173206
 C         3.3244552245        3.0578265852      -14.0862189784
 O         2.2549641625        3.2841276792      -13.5745108220
 C         4.5095902217        4.0955411322      -14.1305779623
 C         4.2997973449        5.2227584827      -13.0439194371
 C         5.1709140147        6.4316970936      -13.2239976160
 O         5.4468626118        6.8845268347      -14.3009521455
 C         5.7298259310        7.2049418091      -11.9988499208
 C         4.6361655554        7.1675005563      -10.9150146765
 O         4.5493765305        6.2249803829      -10.1795911870
 C         3.3107984255        8.0640292904      -11.1620028446
 C         2.1120604940        7.4199695037      -10.4685848026
 C         1.1078753503        6.6229410206      -11.4651123927
 O         1.4178483969        6.4762365771      -12.6122175823
 C        -0.3629135383        6.2403453912      -10.9571154523
 C        -0.7881898690        4.8992623145      -11.8369779833
 O        -0.9375796693        4.9591017819      -13.0767065460
 C        -1.1237301677        3.5429549821      -11.2346946909
 C        -1.2568523844        2.5198664655      -12.3532645770
 C        -1.9245992150        1.3044078050      -11.7489124779
 O        -3.0683689932        1.4358937627      -11.3270375381
 C        -1.1811767091       -0.0709573045      -11.6044441278
 C        -1.4120955478       -0.6585921286      -10.0988625806
 O        -0.4740537806       -0.4670479416       -9.3425340930
 C        -2.6152877422       -1.4795170557       -9.6512291533
 C        -2.9130813932       -1.5633108603       -8.1225725270
 C        -3.7647362631       -2.8143704902       -7.5981601218
 O        -4.6429655285       -3.2824749799       -8.2939187106
 C        -3.2315169346       -3.3409707615       -6.2198893014
 C        -3.1722729662       -4.9340171028       -6.2793968560
 O        -4.0352213922       -5.6432634465       -6.7158908556
 C        -1.8746075846       -5.6013359416       -5.6566830555
 C        -1.8257190016       -7.1078518325       -6.0405414980
 C        -2.9685488499       -7.9673592604       -5.4626390364
 O        -3.7158686861       -7.6037072657       -4.5900730940
 C        -2.9574673116       -9.4631551024       -6.0173507003
 C        -3.8036894846       -9.4253772421       -7.3953659163
 O        -3.4082723992       -8.9627366368       -8.4275340257
 C        -5.1884631310      -10.0565317257       -7.3527546817
 C        -5.9149615321       -9.8107895421       -8.6511182909
 C        -6.1049158344       -8.3279205403       -9.0239155227
 O        -5.4640522190       -7.4955472757       -8.4076329613
 C        -7.0374647952       -7.9135623301      -10.2261454245
 C        -7.7310288011       -6.5792032088       -9.7863967192
 O        -7.1472806227       -5.5076673423       -9.8470415536
 C        -9.1543862793       -6.7140508722       -9.1831922426
 C        -9.8612137545       -5.3532275905       -8.7326255085
 C        -9.1095188235       -4.7523372600       -7.5351758929
 O        -8.2488131739       -3.8681015491       -7.5876366651
 C        -9.4473692840       -5.1618429948       -6.0730657202
 C        -8.5410535424       -6.5338413097       -5.8732583639
 O        -7.3995234798       -6.5250622220       -6.3431745229
 C        -9.2955370911       -7.6723122195       -5.1054393941
 C        -8.6950441351       -9.0548004650       -4.9311214382
 C        -8.9034008287       -9.9246905870       -6.2009970353
 O        -8.9993596424       -9.3842872200       -7.3029271929
 C        -9.0889262665      -11.4471736249       -5.7989130317
 C       -10.7895694046      -11.4522363216       -5.7625326052
 O       -11.4312895797      -10.6766078805       -6.3947598982
 C       -11.3927882340      -12.6586944480       -5.0310502840
 C       -11.4833661530      -12.5222598473       -3.4573046165
 C       -11.7835495185      -11.1180882594       -2.7885901342
 O       -11.0748531057      -10.1897911682       -3.0586785346
 C       -13.1184054163      -11.0596875787       -1.9962408608
 C       -14.2855642102      -11.1252830465       -3.0497134264
 O       -14.5281331862      -10.0832354682       -3.6258320187
 C       -15.1269792683      -12.3985314222       -3.0763158902
 C       -13.0545923732      -12.1967045427       -0.9403495107
 C       -13.1835424845       -9.6449224593       -1.2752705474
 C        -8.9186594738      -12.3805141050       -7.0083902273
 C        -8.4172829243      -11.9319366928       -4.4301112370
 C        -8.9870656393       -4.1662129577       -5.0275435301
 C       -11.0360851242       -5.4665086993       -5.9071193905
 C        -6.1227450660       -7.6420546936      -11.4259662371
 C        -8.0157247988       -9.0705211700      -10.6838967205
 C        -1.5834068073       -9.9874710120       -6.4223806707
 C        -3.4538317005      -10.4055395681       -4.8863544081
 C        -1.9038779987       -2.6451229115       -5.7178461944
 C        -4.2741785275       -3.0995927763       -5.1477763438
 C        -1.7385761120       -1.2066151610      -12.5313059650
 C         0.3926023396        0.0528966077      -11.7350058008
 C        -0.4983191257        5.8920638336       -9.4729792658
 C        -1.2746306694        7.4568029059      -11.2799892349
 C         7.0750569440        6.4723538968      -11.4373461504
 C         6.0620215352        8.6224485429      -12.5131713571
 C         2.9932794149        0.4703811701      -14.3980735812
 C         5.1311154661        1.5105702682      -15.1392450361
 C        -1.5247672159        4.6737178462      -18.3845231907
 C         0.4912087100        5.0591978206      -19.9392595357
 C         1.4381774676       11.2075239643      -16.2896904274
 C         2.5012589590        9.9623718252      -14.3521087968
 H        -1.2440325337       10.8546735089      -13.3540369903
 H        -0.9151213122       11.8359158777      -14.8301707553
 H         0.3052451227       11.6924304428      -13.6621961678
 H         2.1410778252        8.9972156564      -18.4094909472
 H         0.5001857568        9.5015988380      -18.2431497252
 H         1.9434307512        6.9036916393      -18.8036428814
 H         0.6851187178        7.6667779760      -19.6137374376
 H         1.7759370025        2.6155320510      -18.6529309343
 H         0.1949089870        2.1071190191      -18.2864928494
 H         1.7957117654        0.6680295848      -16.9123540715
 H         1.0821327812        1.8338085304      -15.7971825102
 H         4.5619619948        4.6525632490      -15.1015135689
 H         5.4819662928        3.6010636917      -13.9378646730
 H         4.3884734275        4.8806117863      -12.0161051213
 H         3.2087300771        5.4759183217      -12.9652051443
 H         3.2339591860        8.0334392744      -12.2520220629
 H         3.4091551293        9.1306772391      -10.7846950995
 H         1.4642562180        8.1614726442      -10.1017176930
 H         2.3980071073        6.6755235575       -9.6114582232
 H        -2.0699189446        3.5704251328      -10.7980238480
 H        -0.3791233810        3.2428277483      -10.5183558039
 H        -0.2202693338        2.4210181784      -12.8187967220
 H        -1.9497594317        3.0077143053      -12.9589981065
 H        -2.5108931752       -2.4453541791      -10.1242925209
 H        -3.4343180648       -0.9948615910      -10.1342509659
 H        -3.5576314517       -0.6876379302       -7.8214916120
 H        -2.0744506739       -1.5035324996       -7.4946621533
 H        -1.8470245303       -5.4713465045       -4.5569748581
 H        -1.0325214237       -5.0512044014       -6.0181257085
 H        -0.9680344355       -7.4200152286       -5.4809367176
 H        -1.7867153305       -7.2856134732       -7.1021970795
 H        -5.8757265040       -9.4961908903       -6.5504665660
 H        -5.0149832161      -11.1726026715       -7.1593788937
 H        -6.9160834882      -10.2692579234       -8.5365403670
 H        -5.3585353130      -10.2401564569       -9.4553626202
 H        -9.2905727150       -7.3620797209       -8.3033987988
 H        -9.8170947459       -7.1980891178       -9.8979307277
 H       -10.9403628109       -5.4405027714       -8.6585147607
 H        -9.5933709637       -4.5063955428       -9.4161576045
 H       -10.1995548549       -7.8903816224       -5.6925846755
 H        -9.5246999178       -7.2010150875       -4.1091611249
 H        -9.1635315469       -9.4118279466       -4.0421511414
 H        -7.6429318887       -8.9007557523       -4.7812471563
 H       -10.7849186595      -13.5110382861       -5.2137503930
 H       -12.3668190384      -12.7898148324       -5.3241974194
 H       -10.5612915806      -12.7816693516       -2.9729916804
 H       -12.2249844270      -13.2561826486       -3.1161433168
 H       -15.5855767458      -12.4783087607       -2.0669198015
 H       -14.5158958545      -13.2384483634       -3.2491646116
 H       -15.9925143009      -12.2526652642       -3.7550398178
 H       -13.1270864219      -13.1823638978       -1.3868183014
 H       -13.9393640296      -12.2046454932       -0.3334307747
 H       -12.2060923946      -12.1133909338       -0.2934659889
 H       -14.2546848725       -9.4365905247       -1.2013352445
 H       -12.8637858953       -8.7884102021       -1.8852177028
 H       -12.6142271479       -9.6095680374       -0.4119549314
 H        -7.8723997513      -12.4269736765       -7.3262039080
 H        -9.4683049903      -12.0357413444       -7.9306142674
 H        -9.1864277268      -13.4212299270       -6.8356659419
 H        -8.9223699469      -11.4537805535       -3.5562245952
 H        -7.4170943620      -11.6484618934       -4.3623942453
 H        -8.5250768175      -12.9807268271       -4.2224580100
 H        -7.9487686628       -3.9926244349       -5.0141610060
 H        -9.3147947562       -4.4968032565       -4.0830638169
 H        -9.3669433769       -3.1414602150       -5.2017502737
 H       -11.5013608374       -4.5536587765       -5.6427007719
 H       -11.2653843477       -6.0610073119       -4.9691929960
 H       -11.5685307504       -5.9403289564       -6.7125392982
 H        -5.5401395906       -8.4722637411      -11.7938607071
 H        -5.5619879883       -6.6881183027      -11.2990106031
 H        -6.8999486049       -7.3644278762      -12.1291034370
 H        -7.4206972001       -9.7387387991      -11.3538685220
 H        -8.8574068225       -8.6728010577      -11.2337543309
 H        -8.4241532133       -9.6233186376       -9.7985024038
 H        -0.7941072308       -9.6792394304       -5.7139457575
 H        -1.1162370299       -9.5690113604       -7.3286315152
 H        -1.5200776934      -11.0860443620       -6.4051332668
 H        -2.6404075665      -10.5883813890       -4.1716262937
 H        -3.7286606476      -11.3938077899       -5.2636657555
 H        -4.3047868952       -9.9371586335       -4.4034288911
 H        -1.5963210384       -3.2232471110       -4.8473683531
 H        -2.0912483242       -1.6255323567       -5.3959835608
 H        -1.0927125606       -2.7596776811       -6.4021362455
 H        -5.2527269359       -3.3701358099       -5.4383800790
 H        -4.2853725854       -2.0277518865       -4.9202261776
 H        -3.9239581286       -3.5856132072       -4.2578177331
 H        -1.5576291014       -0.9804087396      -13.5509613612
 H        -2.7828883817       -1.4804037948      -12.3793428832
 H        -1.0892463303       -1.9981819490      -12.2676136671
 H         0.8120355592        1.0866880583      -11.6083439027
 H         0.6699334453       -0.2480180035      -12.7914833730
 H         0.7764655556       -0.6644604201      -11.0221728996
 H         0.1287622582        4.9476367061       -9.3111615112
 H        -1.5849049847        5.6783140070       -9.2461286505
 H        -0.2528570573        6.6685153425       -8.7921277816
 H        -2.1567947286        7.4637426226      -10.6737632160
 H        -1.5824584289        7.3937420365      -12.3208807771
 H        -0.7979403689        8.4075335870      -11.0728107504
 H         6.8499254352        5.4012085765      -11.4428701619
 H         7.4172067391        6.6914574500      -10.4253071744
 H         7.8928213039        6.7549458151      -12.0782280186
 H         6.7363596008        8.5508572222      -13.3641590853
 H         6.4573423823        9.2666712250      -11.7488403508
 H         5.0454489013        8.9411899905      -12.8531352893
 H         3.6456857080        0.0477658147      -13.6285319691
 H         2.9846944664       -0.2842125447      -15.1156318516
 H         2.0065970226        0.7699940121      -14.0548789373
 H         5.7430126557        2.2600706245      -15.6091840762
 H         5.2136108691        0.6041623286      -15.8380559464
 H         5.4889509713        1.4000591482      -14.1579008814
 H        -2.0527636955        5.0669180047      -19.3079712682
 H        -1.9780868555        5.0658630620      -17.5192504241
 H        -1.7390086806        3.6309480013      -18.3699977128
 H         0.1911169641        4.1464030921      -20.5056888228
 H         1.5960694222        5.1022331267      -19.8852858415
 H         0.1227803204        5.9062635128      -20.5083393025
 H         0.9106573270       11.1555626741      -17.2653749849
 H         2.4304029212       11.5113036542      -16.6035519673
 H         1.1092461637       12.0813839458      -15.7310986131
 H         3.0854832844        9.0249814436      -14.1584351612
 H         2.1013286822       10.2412226201      -13.3856956281
 H         3.3421882912       10.6511551616      -14.4611440536
 Na        0.1312726452        6.2491740881      -14.7848526181
 Na       -6.0972546996       -5.0602449747       -7.8038662545
