232

 C        -0.4819103445       11.1779265689      -14.1860809526
 C        -0.0692013983        9.8371017974      -14.7087514530
 O        -0.7268792590        8.8537230094      -14.4518801979
 C         1.3531011482        9.8590933498      -15.3933483789
 C         1.5702849450        8.6238369277      -16.3560359920
 O         1.8397246190        7.5137634216      -15.8405658119
 C         1.3020074599        8.8314115396      -17.8608692624
 C         1.1569542894        7.4336467253      -18.5470530039
 C         0.0731423912        6.5566300323      -17.8666460943
 O        -0.6228387900        6.9077101075      -16.9131221442
 C        -0.0779319445        5.0506541360      -18.4801006791
 C         0.6394276071        4.0581110202      -17.3831391361
 O         0.5584298838        4.3000199794      -16.1879437227
 C         1.0803941949        2.7114355973      -17.8872866189
 C         1.6605914214        1.8344071559      -16.8538734767
 C         3.1398334427        2.2932983231      -16.3849921592
 O         3.6511321915        3.1010433483      -17.1284538308
 C         3.8071880878        1.8274747760      -15.0295429169
 C         3.4896981218        3.0770402893      -14.1421521941
 O         2.3653131816        3.0641300890      -13.6258374777
 C         4.4566344825        4.1902821064      -14.0640632890
 C         4.3574311668        5.2544439611      -12.9771093668
 C         5.2341764059        6.4267975578      -13.2702119710
 O         5.3877555510        6.8716158361      -14.4136450531
 C         5.7566713809        7.2214926863      -12.0576741892
 C         4.5807818511        7.0092084629      -10.9982115191
 O         4.6181984844        6.1936145056      -10.1317435539
 C         3.3397003050        7.9105733264      -11.3408421344
 C         2.0747454137        7.5871170676      -10.5957848190
 C         1.1524038973        6.7122340807      -11.4957887077
 O         1.5727238929        6.4350915699      -12.6202560960
 C        -0.3234115035        6.1759727345      -11.0511554849
 C        -0.7506411047        4.9736324545      -11.9114170624
 O        -0.8508465778        5.0950687915      -13.1134124523
 C        -1.0640478055        3.5837689664      -11.2530143921
 C        -1.2901455826        2.4028688040      -12.4047497853
 C        -1.9662285870        1.1657555346      -11.8142756700
 O        -3.1135684466        1.2454987232      -11.4272425581
 C        -1.2215147074       -0.3156496957      -11.5630168207
 C        -1.3993901159       -0.6075017343      -10.0478765486
 O        -0.4535811517       -0.4362711222       -9.2398252807
 C        -2.6875834631       -1.5650595550       -9.6563379768
 C        -2.9782301906       -1.4326636413       -8.2064918283
 C        -3.6333239831       -2.8927737161       -7.6037382473
 O        -4.5439257218       -3.3705901561       -8.2102125004
 C        -3.2592941754       -3.4092609690       -6.1799454699
 C        -3.0926648115       -4.9249590463       -6.2598405494
 O        -4.0457918504       -5.6649318280       -6.6052980892
 C        -1.8599803600       -5.5537783821       -5.6738859256
 C        -1.7510789892       -7.0161682871       -6.0466357103
 C        -2.8629171876       -7.9739913430       -5.4394355160
 O        -3.5763333370       -7.6864427836       -4.5322568689
 C        -2.9786639421       -9.4380676419       -6.0106788659
 C        -3.8587639568       -9.3867614406       -7.2921014372
 O        -3.3063374687       -8.9102766955       -8.2600462091
 C        -5.3438114605       -9.9750432797       -7.3662360083
 C        -5.9237529089       -9.7934951673       -8.7824862142
 C        -6.0344977767       -8.2620621672       -9.1121780640
 O        -5.5327128625       -7.4495577768       -8.4252762794
 C        -7.0735773563       -7.8661718023      -10.3125306514
 C        -7.7963625183       -6.6617594845       -9.7370332891
 O        -7.1211053884       -5.6097451447       -9.7254861143
 C        -9.1494154772       -6.7002853819       -9.1768233797
 C        -9.7450348646       -5.2939383598       -8.9046492282
 C        -9.2048731926       -4.6231108364       -7.6183220030
 O        -8.2558723436       -3.8894243546       -7.6926540775
 C        -9.5591638501       -5.1802500791       -6.1108544773
 C        -8.7247035081       -6.4069275220       -5.9396347871
 O        -7.5525343837       -6.5398540231       -6.1838918257
 C        -9.3812395195       -7.5335366626       -5.0381498920
 C        -8.6279679929       -8.9470265692       -4.8182088932
 C        -8.8796681927       -9.8859217039       -6.0208448195
 O        -8.9986476774       -9.4648437964       -7.1494198421
 C        -9.1911809459      -11.3886163401       -5.8476770180
 C       -10.7503902381      -11.4806440998       -5.7080052469
 O       -11.4438712843      -10.7125404334       -6.3428114138
 C       -11.3619123800      -12.6492162064       -4.9812823417
 C       -11.5126264920      -12.5336422455       -3.4563946007
 C       -11.8002270157      -11.1519880276       -2.8999722227
 O       -11.0835891388      -10.1728110944       -3.0728035513
 C       -13.0481205082      -11.0799079292       -1.9586780109
 C       -14.2946836274      -11.0872027438       -2.8876985699
 O       -14.5850274240      -10.0787699027       -3.5241960928
 C       -14.9184980941      -12.3970931594       -3.1623462795
 C       -13.0804841844      -12.2574314257       -0.9158379694
 C       -13.1274543205       -9.6505614472       -1.1491702287
 C        -8.7944557783      -12.3505312910       -7.0382369723
 C        -8.4994284712      -11.8832168691       -4.6402280206
 C        -9.0771150035       -4.0755376948       -5.2066959287
 C       -11.0848504496       -5.4312029519       -5.9394550776
 C        -6.2413209618       -7.4872873999      -11.5717321285
 C        -7.9790576577       -9.1364950946      -10.5329869277
 C        -1.5980423115       -9.8914803399       -6.4362706361
 C        -3.4989807822      -10.3179909796       -4.8646827930
 C        -1.9966684113       -2.7392559284       -5.7544143213
 C        -4.5124477088       -3.1354645148       -5.1768728936
 C        -1.7987570121       -1.3731483593      -12.5153524310
 C         0.2680584251       -0.1129093887      -11.8064833318
 C        -0.3580965973        5.8589438951       -9.5154489498
 C        -1.2629196946        7.3563325399      -11.3518807980
 C         7.0389987385        6.5129968510      -11.5456663996
 C         6.0738605894        8.7339154230      -12.4030768563
 C         3.0835201143        0.6202822057      -14.3836502818
 C         5.2782149956        1.4232191420      -15.2040679526
 C        -1.6285771761        4.6165779500      -18.3727794418
 C         0.3415893767        4.9030453072      -19.8760327498
 C         1.4892002749       11.2008512891      -16.1816776788
 C         2.5274160978        9.8146520573      -14.3179762763
 H        -1.3259399001       11.0232856976      -13.5796572366
 H        -0.7316994559       11.8515898556      -15.0209663263
 H         0.3508497550       11.7110608900      -13.6704055379
 H         2.0204996710        9.4023831568      -18.5405812396
 H         0.3103305566        9.2614172770      -18.0130520318
 H         2.1097761949        6.8586114948      -18.4555657557
 H         1.0596577991        7.4651845072      -19.6543316191
 H         1.8698373578        2.8229853968      -18.6747876501
 H         0.3368642181        2.1390283145      -18.4667793844
 H         1.7357634847        0.8433273946      -17.2177442344
 H         1.0879941326        1.8103290077      -15.9387129924
 H         4.3129290048        4.7459073592      -15.0082877904
 H         5.5040822316        3.8282818003      -14.0430108840
 H         4.6513630707        4.8502823655      -12.0256235372
 H         3.3787732468        5.5089182086      -12.7582698118
 H         3.2735639125        7.9420912571      -12.4086069987
 H         3.6647824193        8.8870161505      -11.0072650441
 H         1.4435717155        8.4649749035      -10.3040039699
 H         2.2123524171        6.9161856950       -9.7742211853
 H        -1.9748400151        3.6390301070      -10.6783896696
 H        -0.2096209246        3.3215442351      -10.6437284532
 H        -0.2852217527        2.1804497222      -12.6542797155
 H        -1.8381324135        2.9276184107      -13.1634539215
 H        -2.2965819835       -2.5319990984       -9.8699617534
 H        -3.5861679372       -1.4007883349      -10.3235181252
 H        -3.6526429409       -0.6941998713       -7.9671621317
 H        -1.9470984495       -1.1998762660       -7.5774609721
 H        -1.7949827876       -5.3710821039       -4.6314232276
 H        -1.0594386599       -4.9477611753       -6.1675967268
 H        -0.6774369779       -7.2735042749       -5.7945686112
 H        -2.0636900576       -7.0836588877       -7.0426302831
 H        -6.0613767955       -9.4284271023       -6.6993820341
 H        -5.2122050612      -11.0659006437       -7.1341863542
 H        -6.9594594996      -10.3000309658       -8.7693813754
 H        -5.2804917655      -10.2367487341       -9.5044308090
 H        -9.2943436935       -7.2295156904       -8.1159454005
 H        -9.8804565207       -7.2801164618       -9.7834326896
 H       -10.8476046014       -5.4331239590       -8.8296998177
 H        -9.5248441541       -4.4987177965       -9.7225094234
 H       -10.3679332859       -7.9018741765       -5.4087852392
 H        -9.4505054087       -7.0087472894       -4.0629940739
 H        -9.1725838253       -9.2934361622       -3.9111562744
 H        -7.5440110416       -8.8114701868       -4.6661081444
 H       -10.7742565881      -13.5467414569       -5.1460765284
 H       -12.3932569956      -12.7479033826       -5.3465450522
 H       -10.6006471925      -12.8838587660       -2.9244993044
 H       -12.3321485920      -13.1712954480       -3.1080978151
 H       -15.2121066269      -13.0039433763       -2.2758947804
 H       -14.2366800205      -12.9256491152       -3.8444176832
 H       -15.8355494739      -12.1172260942       -3.6255811964
 H       -12.9361690830      -13.2441326329       -1.2393027406
 H       -14.1679824995      -12.2991154704       -0.7307712957
 H       -12.5723821258      -12.0494773325        0.0885291829
 H       -14.2027183115       -9.5624586637       -0.8720011071
 H       -13.0550362432       -8.7379692411       -1.7901290696
 H       -12.3898062512       -9.5687722950       -0.3499301981
 H        -7.7027144870      -12.5501592473       -6.9981828568
 H        -8.9062419431      -11.8179834914       -8.0059672607
 H        -9.3367123632      -13.2271413306       -7.1388300357
 H        -8.9963720069      -11.6027453533       -3.6968360118
 H        -7.5871026978      -11.3701534795       -4.6243665431
 H        -8.4011453670      -12.9495088123       -4.5318167102
 H        -8.1830417150       -3.6239010230       -5.6801725451
 H        -8.9255773862       -4.2614310932       -4.1317285439
 H        -9.7253075623       -3.2298958722       -5.2998451650
 H       -11.6606675799       -4.5277021570       -5.9551636660
 H       -11.2322356453       -5.7671281908       -5.0003254748
 H       -11.4297118845       -6.1917097121       -6.5979116908
 H        -5.6822501215       -8.3576436665      -11.9517228565
 H        -5.6451236012       -6.5888863598      -11.4820493984
 H        -7.0120537478       -7.2452510548      -12.2535063415
 H        -7.3913509706      -10.0330698277      -10.9532343613
 H        -8.6806457759       -8.8394215977      -11.2720167674
 H        -8.6043243905       -9.3289245130       -9.6861774020
 H        -0.7926459408       -9.8198902891       -5.6602448223
 H        -1.0775450446       -9.2750392072       -7.2470347731
 H        -1.5978704191      -10.9466231454       -6.6201753763
 H        -2.7496367546      -10.3863107705       -4.1172353441
 H        -3.5936697798      -11.3353553779       -5.2105231536
 H        -4.4821779827       -9.9696476845       -4.4826194443
 H        -1.6517257217       -3.0760782595       -4.7827021350
 H        -2.0882050539       -1.6458508936       -5.7383111959
 H        -1.2933256885       -3.1119052469       -6.4783807876
 H        -5.4719981018       -3.4877101439       -5.5734171039
 H        -4.6914439130       -2.0937628531       -5.0254273115
 H        -4.2072069795       -3.5681759455       -4.2248737246
 H        -1.6682113494       -0.9744043862      -13.5019969254
 H        -2.8441564871       -1.6717171519      -12.3696811772
 H        -1.1272588399       -2.1665497474      -12.4352246357
 H         0.5958104778        0.7805947173      -11.2605620263
 H         0.4245367046        0.1912988136      -12.8808077083
 H         0.8065912441       -1.0666635964      -11.5171147252
 H         0.2116087186        4.9924589041       -9.3321949739
 H        -1.4203178394        5.7669210880       -9.1791702734
 H         0.0099555195        6.7050844735       -8.8692873716
 H        -2.1663819099        7.2408816344      -10.8128847002
 H        -1.4839199869        7.4997808068      -12.4015693210
 H        -0.7775239288        8.2986772014      -10.9360396119
 H         6.7536566497        5.4299430215      -11.4289239766
 H         7.5399132736        6.8399600384      -10.6473756490
 H         7.7813102042        6.6708516184      -12.2611364005
 H         6.9147957418        8.8799802962      -13.0177869798
 H         6.1665003156        9.3431102190      -11.4504882292
 H         5.1138348131        8.9942347203      -12.9616508733
 H         3.6347836413        0.4290994386      -13.4645663743
 H         3.3035698951       -0.2241289376      -14.9704588665
 H         2.0185169497        0.7721382529      -14.2063179255
 H         5.9234013553        2.1118803421      -15.6823926376
 H         5.2740457968        0.5706791989      -15.8998468753
 H         5.6744603639        1.2400052775      -14.1470673237
 H        -2.2969023361        5.1080438895      -19.0766384265
 H        -2.0103487226        4.6080377657      -17.3890307103
 H        -1.7006656431        3.5039803124      -18.6311103360
 H        -0.0544445092        3.9976003456      -20.2808624893
 H         1.4667209081        4.7869323447      -19.9163206406
 H         0.0651803734        5.7872799464      -20.4887362558
 H         0.7938335099       11.2504827912      -17.0157270701
 H         2.4434369872       11.1972905850      -16.7212249338
 H         1.5128253282       12.1513895676      -15.6504837861
 H         3.0331252696        8.8101653729      -14.1794674160
 H         2.2444113504       10.0736441199      -13.3102004367
 H         3.3906833694       10.5024894939      -14.4333708996
 Na        0.0174731629        6.2799693144      -14.6755223775
 Na       -6.1354943174       -5.1279327864       -7.7551766345
