232

 C        -0.7411778711       11.2405339161      -14.2087813028
 C        -0.0352579645        9.9331259525      -14.5509421149
 O        -0.4867356327        8.8951296132      -14.0700764042
 C         1.3259539901        9.9050761499      -15.2331607447
 C         1.4378535245        8.5266730626      -16.2290262404
 O         1.7018914070        7.5247363927      -15.6899168603
 C         1.2292271383        8.6713307053      -17.8238405038
 C         1.3058546280        7.2521524991      -18.4668206184
 C         0.0350268201        6.4233110458      -17.9316933757
 O        -0.5924042632        6.9218479474      -17.0310436420
 C        -0.2821556925        4.9877722494      -18.3893641978
 C         0.4753371652        4.0942153073      -17.2894149556
 O         0.4643682538        4.3175986355      -16.1068269262
 C         1.3174927604        2.9209599795      -17.9276773274
 C         1.9068224310        1.8673808460      -16.8465411788
 C         3.2890800309        2.3347541752      -16.5897311427
 O         3.9744999027        3.0930825947      -17.2468026341
 C         3.8507371979        1.7884896357      -15.2158392151
 C         3.6594484971        3.0056375254      -14.2587389312
 O         2.8192954165        3.0400177029      -13.4148100247
 C         4.6062778954        4.1804118800      -14.4840939147
 C         4.7017207473        5.0094663556      -13.1883978272
 C         5.2010452177        6.4280398769      -13.3842608849
 O         5.2976341686        6.8993672438      -14.4665421675
 C         5.7292688259        7.1957692131      -12.0477831372
 C         4.5845243673        7.1306531516      -11.0002602101
 O         4.6332595355        6.3634114185      -10.0624153575
 C         3.3206094567        8.0649649323      -11.3323157662
 C         2.0520680786        7.4880035015      -10.7556897389
 C         1.1673450672        6.6114428927      -11.7513070380
 O         1.5334251130        6.4460114825      -12.8756681942
 C        -0.1703060703        6.0546434644      -11.1420902266
 C        -0.6731481089        4.7687668190      -11.9970526959
 O        -0.9962031487        4.9413192017      -13.1868748253
 C        -0.9954264443        3.4474852980      -11.2727451649
 C        -1.3289956504        2.3345607738      -12.2293955166
 C        -1.9669773646        0.9772774996      -11.7412091230
 O        -3.1675457083        0.8749704883      -11.6050464921
 C        -1.2122730927       -0.4623960821      -11.4860116496
 C        -1.5289785911       -0.8101020599       -9.9884456534
 O        -0.7955939322       -0.3243276493       -9.1411727026
 C        -2.7738244937       -1.6401189585       -9.6828298643
 C        -3.0074404481       -1.5637676948       -8.1947713130
 C        -3.6046502606       -2.9096033395       -7.6856634051
 O        -4.4690012507       -3.4900919897       -8.3101326050
 C        -3.3354936324       -3.4153179111       -6.1701545338
 C        -3.2040243771       -4.9141883141       -6.2090214466
 O        -4.1209398136       -5.6050469479       -6.4978220544
 C        -1.8057168970       -5.5848107854       -5.7310061091
 C        -1.7730739294       -7.0645106296       -6.1540740058
 C        -2.6232286658       -7.9969355133       -5.3150677992
 O        -3.1910781570       -7.5382262312       -4.3502614083
 C        -2.9037921179       -9.4403375103       -5.9321019929
 C        -3.7087115795       -9.2297046595       -7.2986746400
 O        -3.1381224703       -8.7998862203       -8.2706698698
 C        -5.1470696765       -9.7355294572       -7.2567375771
 C        -5.6935911420       -9.7023567661       -8.7190244715
 C        -6.1395298504       -8.2937105441       -9.0991740733
 O        -5.6136789884       -7.3354086564       -8.5189462730
 C        -7.2252238602       -7.9500104575      -10.3196090243
 C        -7.8779091731       -6.6283091089       -9.7839200887
 O        -7.2954785547       -5.5928336755       -9.7147423110
 C        -9.3024547804       -6.7272528047       -9.3257022679
 C        -9.9516662267       -5.3045574601       -8.9858727570
 C        -9.1756782270       -4.6604142496       -7.7084249146
 O        -8.2645188478       -3.8652757001       -7.9038157155
 C        -9.6813946794       -5.1233764203       -6.2787253937
 C        -8.9372263895       -6.3804053611       -5.7786666718
 O        -7.7184199716       -6.4965082881       -6.0282512551
 C        -9.5437744578       -7.4182325954       -4.9307312178
 C        -8.6720819502       -8.7282355010       -4.8167169692
 C        -8.8724192056       -9.7066360343       -6.0153745020
 O        -8.7829998329       -9.2123516680       -7.1504443428
 C        -9.1635974419      -11.2540171016       -5.8269745042
 C       -10.7817050730      -11.4346277036       -5.5998920373
 O       -11.5025327670      -10.7285484174       -6.2306470288
 C       -11.3812103026      -12.6675088469       -4.8942111205
 C       -11.4014755047      -12.6933795300       -3.3688117754
 C       -11.8510316103      -11.2903942302       -2.8444691914
 O       -11.2006435822      -10.3158883120       -3.1416395095
 C       -12.9659276330      -11.1254420341       -1.8350839547
 C       -14.2422891151      -11.0698388814       -2.8349777398
 O       -14.7848444353      -10.0621276264       -3.2015550147
 C       -14.7368696440      -12.3692273541       -3.4742055470
 C       -13.1631001640      -12.1889112874       -0.6828440612
 C       -12.8423030437       -9.7313814156       -1.1293411778
 C        -8.6077587926      -11.8869065052       -7.0739626157
 C        -8.4502740896      -11.9124589694       -4.5357154296
 C        -9.2760265732       -3.9062904995       -5.3001435628
 C       -11.1961574875       -5.1903321316       -6.3762728977
 C        -6.4864235566       -7.5364611145      -11.5707666614
 C        -8.2005337028       -9.0514009676      -10.6950895237
 C        -1.5977186008      -10.1010000476       -6.2932450495
 C        -3.6451499944      -10.3214929136       -4.8737251421
 C        -2.2361546527       -2.6609517721       -5.3317770310
 C        -4.6318548909       -2.9913751753       -5.3771449083
 C        -1.9923304546       -1.3773583553      -12.5090896536
 C         0.3706705601       -0.4677311963      -11.9364050181
 C        -0.0278251622        5.7855520168       -9.6287219684
 C        -1.2053499012        7.1571593289      -11.3656512047
 C         7.0226627905        6.4914109808      -11.6165450109
 C         5.9630891580        8.7564547958      -12.2078518102
 C         3.1847508926        0.5007892859      -14.6825608479
 C         5.2912115860        1.6009428580      -15.4930815426
 C        -1.7458657343        4.8639017880      -18.1675649500
 C         0.2355950545        4.7615706589      -19.8495797891
 C         1.6809825088       11.1497278596      -16.0737754077
 C         2.3458923911        9.6042232963      -14.1385791973
 H        -1.6919004816       11.0144142484      -13.6060781586
 H        -0.9815267172       11.9829327816      -14.9864003880
 H        -0.0114778703       11.7782772380      -13.6108820948
 H         2.0349732440        9.2201337987      -18.1587628654
 H         0.2913411713        9.1158405102      -18.2011420463
 H         2.2164687751        6.7340252475      -18.1582108023
 H         1.3693982281        7.1743535437      -19.5546131757
 H         2.0243717299        3.2436887240      -18.6774700596
 H         0.7075226412        2.2758339283      -18.5661095537
 H         1.9298283116        0.7832444060      -17.1837904488
 H         1.4170414792        1.8480393462      -15.8555134122
 H         4.3025256306        4.7147717987      -15.3701933284
 H         5.6214393994        3.9063235489      -14.6291984063
 H         5.2137959192        4.3780828997      -12.4385753433
 H         3.6685560610        5.1204208120      -12.6869886715
 H         3.3838854457        8.2111559487      -12.4156871158
 H         3.5366616037        9.0832967379      -10.9303282454
 H         1.2911376436        8.2065894818      -10.5594297180
 H         2.0835834215        6.8477408233       -9.8204963850
 H        -1.8933023919        3.6519579626      -10.6232064839
 H        -0.0248010552        3.1719944151      -10.7421374108
 H        -0.2893894302        2.2416128846      -12.7126414534
 H        -2.0210289808        2.8108731870      -12.9389741413
 H        -2.4090478596       -2.7027974014       -9.9325229317
 H        -3.5420530129       -1.3942600510      -10.3770020722
 H        -3.7834861622       -0.8072731921       -7.8244653001
 H        -2.1754582706       -1.3341240867       -7.6833538678
 H        -1.8814086337       -5.5733638473       -4.5911131267
 H        -1.0014237550       -4.9732158783       -6.0821561317
 H        -0.7949440036       -7.4012637707       -5.9374766370
 H        -2.1643002138       -7.1374928796       -7.2416901878
 H        -5.6504459971       -9.0465507501       -6.6005269839
 H        -5.1880373696      -10.7081762359       -6.9410008855
 H        -6.4775109477      -10.4086794626       -8.7748380388
 H        -4.8270837271      -10.0495127766       -9.3710960253
 H        -9.2604132472       -7.4665778654       -8.6129925878
 H        -9.9675241349       -7.1552093807      -10.0867517184
 H       -11.0128767488       -5.3463823641       -8.8165692941
 H        -9.8015827421       -4.7924272974       -9.8921078235
 H       -10.5338113170       -7.7087300783       -5.1611581406
 H        -9.4849802175       -6.9065452824       -3.9684239960
 H        -8.9539843946       -9.0583424635       -3.8229933960
 H        -7.6270602271       -8.3353151737       -4.8759473597
 H       -10.9024564482      -13.6647393648       -5.1753667014
 H       -12.4337115594      -12.6023461406       -5.2671850214
 H       -10.4088449780      -12.9136892491       -2.9749511954
 H       -12.0640355074      -13.4552272935       -2.9400556490
 H       -14.2814504299      -13.2361828623       -3.0292667536
 H       -14.3765730212      -12.1957173708       -4.4960323239
 H       -15.8502154806      -12.5057977357       -3.4201743652
 H       -13.0357158549      -13.2851384397       -1.0300810401
 H       -14.1263010209      -12.2206969281       -0.1579197992
 H       -12.3795931940      -11.9446020742       -0.0168222714
 H       -13.4233290224       -9.8228222214       -0.2067009941
 H       -13.3141025394       -8.8679046109       -1.6338669087
 H       -11.7904636850       -9.5248299964       -0.9360463753
 H        -7.5683204100      -12.0890324010       -6.9713554464
 H        -8.6886541398      -11.2113974251       -7.9023511343
 H        -9.2249571516      -12.7520574700       -7.4314694138
 H        -8.6423773859      -11.2910994512       -3.6473780861
 H        -7.3342829010      -11.9384808047       -4.6127902709
 H        -8.8990184075      -12.8610887807       -4.2363331805
 H        -8.4009718043       -3.2983446887       -5.5474796500
 H        -9.1690853789       -4.3464701743       -4.3074828407
 H       -10.0816073050       -3.1241900096       -5.1145436873
 H       -11.4729967203       -4.6123578759       -7.2461058439
 H       -11.8686590954       -4.6827508426       -5.5518570840
 H       -11.4096708531       -6.2586781985       -6.5298287217
 H        -5.8541724006       -8.3493039742      -11.8257763964
 H        -5.8499558886       -6.6747334955      -11.3419845762
 H        -7.1966307999       -7.2949414441      -12.3928053986
 H        -7.6204168311       -9.8511389854      -11.0856572703
 H        -8.8693764193       -8.6999683575      -11.4906305930
 H        -8.8793491565       -9.4032232013       -9.9037779466
 H        -0.9260592115      -10.2681389720       -5.4809438542
 H        -0.9993333288       -9.5314316905       -6.9155761138
 H        -1.7334485966      -11.1494693540       -6.5823481345
 H        -3.0794697700      -10.2822242921       -3.9238632160
 H        -3.5445479065      -11.3844500972       -5.1298494508
 H        -4.6855890000      -10.1235570756       -4.8090865627
 H        -2.0777154019       -3.1498250088       -4.3601705916
 H        -2.6248154150       -1.6741558815       -5.1131752955
 H        -1.2762798933       -2.6629585945       -5.8637676646
 H        -5.5650675769       -3.3982865256       -5.7804082335
 H        -4.8693385463       -1.9041288677       -5.5896821110
 H        -4.4526425238       -3.1635747351       -4.3024980523
 H        -1.7218378909       -1.0638712544      -13.5358988300
 H        -3.0264089898       -1.0514328632      -12.4027863241
 H        -1.8364704976       -2.4919796265      -12.4095871909
 H         1.1219406299       -0.2248169604      -11.2047644384
 H         0.5058203072        0.3285147111      -12.6237893659
 H         0.4790983067       -1.3823446683      -12.3885861594
 H         0.9701889838        5.3068151677       -9.4447528439
 H        -0.8900863468        5.2702243351       -9.2872425293
 H        -0.0342879040        6.6704331016       -9.1044659687
 H        -2.2247101695        6.6880796772      -11.5353642555
 H        -0.8983171797        7.6911605789      -12.2965056843
 H        -1.2427401540        7.9291761120      -10.6352912554
 H         6.8926105955        5.6138219939      -11.0434295571
 H         7.5944076182        7.2241761611      -11.0481884533
 H         7.7833452926        6.4250369067      -12.4355790967
 H         7.0127012998        8.7531744098      -12.6495852722
 H         6.0525153627        9.1549818148      -11.2321952538
 H         5.3261044054        9.3015884948      -12.8555482263
 H         3.4610703263        0.3968234291      -13.6148063030
 H         3.5523348825       -0.3839633731      -15.2489079797
 H         2.0843563503        0.5964795600      -14.7166587987
 H         5.7301757828        2.2868794126      -16.2498514891
 H         5.4122179547        0.6225145174      -15.9923155686
 H         5.8167270602        1.5983133884      -14.6017933929
 H        -2.2530124724        5.7173507290      -18.6851975535
 H        -2.0596739413        4.6902712421      -17.1249061898
 H        -2.1129613971        3.9869139121      -18.6080486439
 H         0.2942418382        3.6564853220      -20.0153710850
 H         1.2367837624        5.0515316912      -20.0119530441
 H        -0.3609037330        5.3252951266      -20.5379057800
 H         0.7922853768       11.6485147893      -16.4565991873
 H         2.3102268403       11.0656895628      -16.9308458051
 H         2.1765373064       11.8728404274      -15.4486328429
 H         2.0733830877        8.6982361746      -13.6397077700
 H         2.5372903689       10.3039772968      -13.3211352796
 H         3.3488377609        9.5700037568      -14.4865104475
 Na        0.0458827941        6.6115354917      -14.7598889915
 Na       -6.0964487292       -5.2779377242       -7.4788930335
