232

 C       -21.3533793989       -7.0740433348       -1.4637036654
 C       -20.7284217491       -5.8835435456       -2.2088074820
 O       -19.8569866360       -5.2164978570       -1.6744140641
 C       -21.2074691818       -5.6550516295       -3.6612213620
 C       -20.2471820001       -5.0689751186       -4.7063160955
 O       -20.0869857093       -3.9034031454       -4.8566541280
 C       -19.1735313540       -6.0886149941       -5.3414465544
 C       -18.1955097840       -5.2513878942       -6.1977191821
 C       -17.2490611436       -4.4345651856       -5.2969553973
 O       -17.1881349367       -4.8170857776       -4.1295680702
 C       -16.3350741549       -3.2029263466       -5.7564721619
 C       -16.2789858080       -2.3991284569       -4.2830785338
 O       -17.3240067132       -1.8992840534       -3.9536820169
 C       -15.0204472790       -2.3233635268       -3.5268589210
 C       -15.1326924402       -1.8916711155       -2.0473248679
 C       -15.9671847208       -2.8378870740       -1.0670246608
 O       -17.1562234941       -3.0314154597       -1.2269639250
 C       -15.1695969800       -3.3694981660        0.0926947361
 C       -14.1090655868       -4.4787568283       -0.5725086825
 O       -12.9920552380       -4.0587438076       -0.8508581221
 C       -14.5221943096       -5.8940979042       -0.7167702504
 C       -13.5921559459       -6.7987658365       -1.5209178222
 C       -13.0600216630       -6.2174840874       -2.8394284172
 O       -13.4783577003       -5.1640025944       -3.2273215798
 C       -11.9893007068       -6.9743300345       -3.5673004619
 C       -10.6669815411       -6.8045094650       -2.7199311331
 O       -10.6527498011       -6.7441746604       -1.5190175831
 C        -9.2670264030       -6.8028962958       -3.5926998947
 C        -8.2098470716       -5.8955510551       -2.9475810449
 C        -7.8948708398       -4.5489236786       -3.6452115768
 O        -8.6183272658       -4.2869621646       -4.5769602951
 C        -6.4673068847       -3.7292520619       -3.5386338148
 C        -5.3158802095       -4.8251901447       -3.5960584414
 O        -4.9488021634       -5.3066563234       -2.5650148748
 C        -4.7162880157       -5.3815049272       -4.9792137745
 C        -3.2513216918       -5.8923654523       -4.6922498292
 C        -2.2139865098       -4.7243257391       -4.6521798167
 O        -2.5244635171       -3.5566700257       -4.6780441516
 C        -0.7550580647       -5.0758333009       -4.1827746967
 C         0.0102439635       -5.3580427819       -5.5030497687
 O        -0.0254889038       -6.4511761943       -5.9958413499
 C         0.6730392358       -4.2107344415       -6.2743132888
 C         0.9489086650       -4.5463738758       -7.8784546492
 C         0.9412726537       -3.3876845056       -8.8077660062
 O         0.9596524916       -2.2674465447       -8.3734911293
 C         0.5071795468       -3.6396089354      -10.4299646428
 C         1.0628893465       -2.5059329519      -11.4099855145
 O         0.3251793428       -1.9791208869      -12.1891505267
 C         2.6252888571       -2.2080231643      -11.4860301460
 C         2.9749270190       -1.6275275253      -12.9330896963
 C         4.5237422854       -1.3496078174      -12.9840571894
 O         5.0075186461       -0.8873629691      -11.9577361138
 C         5.5963936656       -1.6901273762      -14.2065749816
 C         6.3306412265       -0.3219443284      -14.7207531610
 O         6.1787502367        0.0240233895      -15.8534939790
 C         7.1659483479        0.3355447561      -13.6324009232
 C         8.3630776064        1.3351891358      -13.7967347568
 C         8.4035036723        2.1158301857      -15.0873934121
 O         8.5367659064        1.4793927870      -16.1497997962
 C         8.2966723450        3.6209336814      -15.1224087076
 C         6.9261449855        4.0735078926      -14.7433408614
 O         6.5074893464        3.8369175271      -13.6478830986
 C         6.1922705196        5.2684212673      -15.6030303314
 C         4.7957034267        4.9883771035      -16.2354506189
 C         4.9372351192        4.2183601089      -17.6241183327
 O         5.8940023676        3.4629762675      -17.8773212913
 C         3.8531214673        4.5361792806      -18.7200746267
 C         4.7453765521        5.5613999959      -19.5468420034
 O         4.8498973440        6.6995287154      -19.1425738897
 C         5.5967282996        5.0120048124      -20.6523047856
 C         6.5182496722        6.1259343348      -21.1542644221
 C         7.4143447162        5.6761668826      -22.3160445943
 O         6.9236567568        5.3827067899      -23.4250286872
 C         9.0286950117        5.4808293497      -22.2091863565
 C         9.1049395294        3.9286024577      -21.6923536924
 O         8.1044145250        3.3004769023      -21.4101454444
 C        10.5216412796        3.1723816276      -21.4560974167
 C        10.3363254372        1.6799438213      -21.3328324104
 C         9.1575581882        1.2586658703      -20.3293713099
 O         9.1581966141        1.7705655098      -19.2310711129
 C         8.1430302022        0.2697356167      -21.0135693536
 C         6.8144514778        1.1149504128      -21.2652151840
 O         6.2430542434        1.5339718993      -20.2779023922
 C         6.2801866358        1.2956817733      -22.6278042672
 C         8.5991832460       -0.4223077170      -22.3078768860
 C         7.8511386142       -0.7810695360      -19.8869371506
 C         9.7066031372        5.4185824940      -23.6227143775
 C         9.5419993168        6.4778751226      -21.1230467943
 C         3.3070997985        3.2536676532      -19.4860259124
 C         2.5243670514        5.1972222601      -18.1669151691
 C         9.3473583506        4.2194034203      -14.0302149838
 C         8.8872762391        4.0306053708      -16.5664785514
 C         6.5244047646       -2.6877574557      -13.4898966249
 C         4.9083588048       -2.5262170603      -15.3564078318
 C         1.1590505518       -4.9816523857      -10.9503125311
 C        -1.0202820723       -3.6253924179      -10.6838591189
 C        -0.2454564243       -3.9231175553       -3.3419807502
 C        -0.7154248806       -6.3282809996       -3.3256915857
 C        -6.4756551078       -2.7149876289       -4.7540853110
 C        -6.4848456745       -2.9366028177       -2.2444072198
 C       -12.3991878969       -8.4758810535       -3.4908108607
 C       -12.0238956859       -6.5247668807       -5.0584740517
 C       -14.2831455726       -2.2923114055        0.8128368889
 C       -16.1177694259       -4.1718727139        1.1744992966
 C       -14.8875957414       -3.7647644769       -6.1737794906
 C       -17.0227770513       -2.2045491377       -6.6951049036
 C       -21.7068342478       -6.9363986114       -4.2859286586
 C       -22.3864028323       -4.6346076892       -3.4571455602
 H       -22.0622853686       -7.6129507786       -2.0856780376
 H       -21.7852711507       -6.6786972955       -0.4662006286
 H       -20.5507500369       -7.7427286230       -1.1635736233
 H       -19.6536061918       -6.8782467812       -5.8945541830
 H       -18.5941081048       -6.5502583326       -4.4970509554
 H       -18.6502352416       -4.5910837041       -6.9516226114
 H       -17.4556995642       -5.9894757966       -6.6518031632
 H       -14.2673380549       -1.7445384790       -4.1108724507
 H       -14.5621299392       -3.2616965613       -3.5101713154
 H       -15.5697769323       -0.8669234546       -2.0514935945
 H       -14.0895458583       -1.8556951338       -1.6735942481
 H       -15.5239364500       -5.9327096551       -1.1559915221
 H       -14.5149254039       -6.3254483017        0.2904046638
 H       -14.2196086309       -7.5908771853       -1.8337614669
 H       -12.8205129904       -7.3521324446       -0.9116582211
 H        -9.5191135594       -6.5013230784       -4.5591556657
 H        -8.8620271338       -7.8270885084       -3.5910116078
 H        -7.2243105102       -6.3849706822       -3.0708637693
 H        -8.4399869892       -5.8758880704       -1.8628828395
 H        -4.7405840587       -4.6263417087       -5.7819329709
 H        -5.2694765062       -6.2666561317       -5.2745204623
 H        -2.8944758202       -6.7348990658       -5.2714924051
 H        -3.2445378133       -6.3103935418       -3.7626809863
 H         1.5400902884       -3.9181856818       -5.8059505289
 H        -0.0677444108       -3.3345258215       -6.1758760736
 H         0.2607127622       -5.3339980428       -8.1526750486
 H         1.8838259440       -5.1562520090       -7.8400478483
 H         3.2324282903       -3.0818153033      -11.2976440647
 H         2.6341164193       -1.4350188888      -10.7498485661
 H         2.5517728883       -0.6541752503      -13.0390056108
 H         2.5622312217       -2.2511641512      -13.8153864629
 H         7.4443867274       -0.3879545724      -12.9410355342
 H         6.4262753977        0.9453448700      -13.1832194902
 H         9.2636491420        0.7055517590      -13.8506082482
 H         8.4098740240        2.0855227829      -13.0353222881
 H         6.9071847781        5.5813511374      -16.3351308916
 H         6.0611690091        6.0361510387      -14.9020044795
 H         4.3524969534        5.9176768899      -16.4844658796
 H         4.1547696043        4.5752079967      -15.5349897270
 H         5.0103666123        4.8053277607      -21.5050864118
 H         6.0978602737        4.0351085102      -20.3925170650
 H         6.9988760630        6.7037666662      -20.3515020465
 H         5.8495506738        6.8581147219      -21.6442109546
 H        10.7279275778        3.4999341516      -20.3904216089
 H        11.2688611156        3.5802763911      -22.1487270265
 H        11.4408570992        1.3022454335      -21.2207900463
 H        10.2014263883        1.2524958192      -22.3242884374
 H         6.1052224671        0.2132975214      -22.9980309982
 H         6.9731675691        1.7597449237      -23.2783230583
 H         5.3510558175        1.9195726833      -22.6963885366
 H         8.0013560923       -1.3556441342      -22.4751262457
 H         9.5967454813       -0.7139209707      -22.1677226696
 H         8.6595678928        0.1889880350      -23.2170821101
 H         7.9637799643       -1.8325111568      -20.2530196059
 H         6.8199526013       -0.5385660265      -19.6137433563
 H         8.5625363736       -0.5795000204      -19.0528631926
 H        10.7778416721        5.4793836219      -23.5119612918
 H         9.3157474053        6.0950291092      -24.3059968898
 H         9.5647480237        4.4149366380      -24.0379202388
 H        10.5824463846        6.3664355880      -20.6779169961
 H         8.8499213838        6.3240770038      -20.3093327598
 H         9.4906895106        7.5039640953      -21.5250946045
 H         2.9965219491        2.5592067163      -18.7646689912
 H         4.1399064128        2.7591329653      -20.0611821079
 H         2.5316300584        3.6141484512      -20.1431558380
 H         2.7967512366        5.9624621636      -17.4156406542
 H         1.9882732642        4.5811747524      -17.5226748212
 H         1.8694204042        5.5660279881      -18.9363195849
 H         9.1854022790        5.2624352479      -13.8215205118
 H        10.3427551305        4.2070776479      -14.5436345328
 H         9.4693362949        3.7633277838      -13.0526963032
 H         9.7415110853        3.4765429955      -16.9472472328
 H         8.9536706721        5.1562543636      -16.8319340019
 H         8.0964081426        3.8420166820      -17.3049802940
 H         7.1185937545       -2.1503129083      -12.6802674220
 H         7.0010678528       -3.2711017192      -14.2778828555
 H         5.7921797061       -3.5195359173      -13.0713436704
 H         4.5631147123       -3.4892965554      -14.9636218154
 H         5.6731592021       -2.6973108547      -16.1745767692
 H         4.1516226335       -1.8346912348      -15.8577807411
 H         0.6265395425       -5.8831199827      -10.5278983794
 H         2.2220083300       -4.9581403346      -10.7950775228
 H         1.0895876283       -4.9335717856      -12.0501252592
 H        -1.4993100725       -2.6417663661      -10.6415906518
 H        -1.5861615330       -4.1967520943       -9.9494903911
 H        -1.1777669953       -4.1113724532      -11.6450118435
 H        -0.8363501697       -3.7480154904       -2.3577091818
 H        -0.2343170590       -2.9885034247       -4.0069518005
 H         0.7951151104       -4.1569063887       -3.0547167934
 H        -1.1828234161       -7.1313062956       -3.8204630343
 H        -1.1525034471       -6.2918241404       -2.2710616559
 H         0.3274184412       -6.6724969574       -3.2644329029
 H        -6.6538043864       -3.1041749567       -5.7604881883
 H        -5.4820131170       -2.3001796915       -4.8172379397
 H        -7.2775876870       -1.9629469300       -4.4172721255
 H        -6.8383163187       -3.6928597546       -1.5456503549
 H        -7.1226102639       -2.0065845728       -2.2764056961
 H        -5.4775007145       -2.7244428310       -1.9100790190
 H       -13.4956188878       -8.6024054033       -3.5991648515
 H       -12.2094668255       -8.8631713817       -2.5258362100
 H       -12.0039831898       -9.1227930294       -4.3342939529
 H       -12.8648659567       -6.9875923767       -5.6032441327
 H       -11.0712265289       -6.7789118691       -5.5813023516
 H       -12.1600785041       -5.4811847014       -5.2412236371
 H       -14.2306653359       -2.4674711628        1.9218532058
 H       -14.8091883113       -1.3698767127        0.6378168132
 H       -13.2899156342       -2.2962254822        0.4397974316
 H       -15.6055023584       -4.7170326961        2.0408917836
 H       -16.5753682722       -5.0615949290        0.7100342737
 H       -16.7774473663       -3.4402588514        1.7190914862
 H       -14.0726660120       -3.2971606508       -5.7351302390
 H       -14.9638700469       -3.5359414941       -7.2477504378
 H       -14.7631502127       -4.8792660894       -6.0877808183
 H       -17.9542790726       -1.7388897461       -6.2498050104
 H       -17.1080559424       -2.6781892111       -7.6753099943
 H       -16.5501116076       -1.2370276751       -6.7221618497
 H       -20.9000445333       -7.6817485213       -4.3154581250
 H       -22.0230807129       -6.7495038547       -5.3024174912
 H       -22.6514506264       -7.4383422057       -3.7875249559
 H       -22.7220231576       -4.5633426381       -2.4476725868
 H       -23.1894785645       -4.7600663870       -4.1499513959
 H       -22.1039468139       -3.5574638273       -3.6348037951
 Na      -18.7052799599       -3.4139727335       -2.8507945770
 Na        7.2731867082        1.4257096379      -18.0643053778
