232

 C        -1.2184438265       11.1920337245      -14.9928347982
 C        -0.4171184727        9.9342071138      -14.9697581561
 O        -0.8576654155        8.8942018828      -14.5060859461
 C         1.1266176012        9.9281836925      -15.5235980483
 C         1.3093133197        8.8185102672      -16.5085954341
 O         1.7856562185        7.7578326787      -16.2346197434
 C         0.9398028113        8.9693700454      -17.9337586814
 C         0.8376866659        7.5885286187      -18.6247158423
 C        -0.1667728309        6.7875543108      -17.8205435322
 O        -0.9532901909        7.2678727200      -17.0059225889
 C        -0.5154647102        5.2179817986      -18.0532908642
 C         0.6309062756        4.3924077880      -17.1900514360
 O         0.7376689019        4.7289362753      -16.0538903302
 C         1.3441730729        3.1772719117      -17.7668964672
 C         2.3083926677        2.4777833115      -16.6135814602
 C         3.8150484729        2.6814827111      -16.9371215420
 O         4.1295926894        3.4167402006      -17.8603657171
 C         4.8767880541        1.9117351086      -16.0490168327
 C         5.0674948985        2.8152166609      -14.6868015290
 O         4.9236111696        2.2343596300      -13.6683632185
 C         5.1218448537        4.3023474008      -14.8445228078
 C         5.9982278374        4.9443346181      -13.6760455647
 C         5.5092569370        6.3744972012      -13.3531730985
 O         4.7749031712        6.9853037802      -14.0494043264
 C         6.1053665941        6.9470573050      -11.8890837194
 C         4.9539795205        6.4563351166      -10.8834019591
 O         5.2279139235        5.6289394172      -10.0093854986
 C         3.3887713631        7.0137999293      -10.9935036473
 C         2.3706198374        5.9173063597      -10.5998073386
 C         1.0631543463        5.9085589804      -11.3973383760
 O         0.9527092717        6.6579285566      -12.4048029903
 C        -0.1162190004        4.9986418174      -10.9549791582
 C        -0.4473393672        3.9454495615      -12.1148960167
 O        -0.5838748649        4.4543792957      -13.2130118358
 C        -0.4855551482        2.4860347140      -11.8110640498
 C        -1.3622347218        1.5881885151      -12.6886257062
 C        -2.2900237966        0.5754595464      -11.9149797447
 O        -3.4499542791        0.8158695345      -11.6081531427
 C        -1.6445030187       -0.9123208178      -11.4937023255
 C        -1.8526107122       -1.0334516413       -9.8975628288
 O        -1.2642567307       -0.2838670616       -9.1427007637
 C        -2.8220745237       -2.1626652699       -9.4410140078
 C        -3.1810227374       -2.0544933851       -7.9555715342
 C        -4.2517369341       -2.9608712882       -7.4364110076
 O        -5.1703507071       -3.2563190474       -8.1300087222
 C        -4.2256149572       -3.3142069852       -5.9185579877
 C        -3.8411381977       -4.8653059322       -5.9803997585
 O        -4.6791722506       -5.6088730875       -6.3752590511
 C        -2.3575927126       -5.3155158293       -5.7358687638
 C        -2.1818479144       -6.6921429962       -6.3068556080
 C        -2.3206384819       -7.8015333832       -5.3136011310
 O        -2.2408860222       -7.5779745283       -4.1330960201
 C        -2.8687221624       -9.2367781757       -5.8092415825
 C        -3.3674178734       -9.3623881152       -7.2890084430
 O        -2.7209415735       -9.0396224887       -8.2600444613
 C        -4.7700590465       -9.8893629035       -7.4188459927
 C        -5.4054442660       -9.7622944909       -8.8244591015
 C        -6.1875514576       -8.4301389701       -8.8889366452
 O        -5.9636056940       -7.5699416255       -8.1091365874
 C        -7.1912771508       -8.1186765131      -10.0685170745
 C        -7.8806709293       -6.7071295279       -9.7431043999
 O        -7.2067459312       -5.6648231711       -9.7789480645
 C        -9.3563637392       -6.6191974352       -9.3927466173
 C        -9.7236073406       -5.1875915407       -9.3194592813
 C        -9.3527359244       -4.4024848121       -8.0622694700
 O        -8.6339272246       -3.4092725387       -8.1431152190
 C       -10.0733859261       -4.5443152743       -6.7777943173
 C        -9.3900977044       -5.8702853176       -6.0564183705
 O        -8.1738480945       -5.9286553535       -5.9461507837
 C       -10.2704552451       -6.9453778230       -5.4135595784
 C        -9.4085873025       -7.9632319608       -4.6893604430
 C        -8.8958337902       -8.9866157473       -5.8917495966
 O        -8.5296776451       -8.6120575825       -7.0062364409
 C        -9.0043264392      -10.5289583709       -5.5274144779
 C       -10.4431791578      -10.8607950674       -5.4663599471
 O       -11.1168662553      -10.0805141982       -6.1266246545
 C       -11.0721777816      -12.2301969831       -5.0542102279
 C       -10.9665022410      -12.4859012680       -3.5185937205
 C       -11.5113775275      -11.3212613790       -2.6425569301
 O       -11.0212451689      -10.2402357798       -2.8261270386
 C       -12.6643858918      -11.4884268194       -1.6176321220
 C       -14.1601210718      -10.9999311912       -2.2753809595
 O       -14.8325802750      -10.2798801203       -1.5276658810
 C       -14.3698662183      -11.3049010970       -3.8379224754
 C       -12.8657632928      -12.9594180794       -1.1252730796
 C       -12.5758008264      -10.6038184384       -0.3690610283
 C        -8.2051850879      -11.4076833771       -6.6263205333
 C        -8.2311191185      -10.6427097051       -4.1590477461
 C       -10.0514300730       -3.3675868755       -5.7663326933
 C       -11.5333724908       -4.8099684099       -7.1372818530
 C        -6.2052953291       -7.8786527899      -11.3442135965
 C        -8.2440923735       -9.1538387964      -10.3353073163
 C        -1.5129059568      -10.0854460996       -5.8794807647
 C        -3.7678893745       -9.7396173169       -4.6760244600
 C        -3.2481435925       -2.5222914120       -5.0214231949
 C        -5.5362701141       -3.0244569183       -5.2271726950
 C        -2.3104455114       -2.0531516565      -12.3674749786
 C        -0.1562118396       -0.9214515143      -11.7381249157
 C        -0.1261236913        4.5990166682       -9.4571808012
 C        -1.2502199059        6.0842409223      -11.1059663021
 C         7.4157909998        6.3774901308      -11.5476471257
 C         5.9709735822        8.4680034323      -12.1263030055
 C         4.3350022862        0.5300389986      -15.7497600309
 C         6.2350769199        1.8493700557      -16.8769993658
 C        -1.8357013314        4.8727386579      -17.3483813049
 C        -0.5183193504        4.8003822581      -19.5329551467
 C         1.5358857910       11.2826556798      -16.1382403722
 C         1.9591198541        9.7119414909      -14.2528495541
 H        -2.3198970400       10.9066578051      -14.8783842100
 H        -1.2707696310       11.7034231177      -15.9541576246
 H        -1.0582170761       11.9251979667      -14.1988476980
 H         1.6946205275        9.5907556678      -18.4516273372
 H         0.0696150644        9.5040855174      -18.1243874477
 H         1.7089242264        6.9209747607      -18.6446565686
 H         0.3181523476        7.5573237931      -19.5509047933
 H         1.8968059989        3.6205670483      -18.6096170721
 H         0.6733605482        2.5185353399      -18.2939109045
 H         2.0355658744        1.4169205974      -16.6026801867
 H         2.0530881386        2.9016673782      -15.5919266132
 H         4.1640396828        4.7492990992      -14.8237575088
 H         5.5474401206        4.5612861153      -15.8106953940
 H         7.0608843226        5.0538017552      -14.0662937207
 H         5.8953788048        4.2744556854      -12.7927471138
 H         3.2407853902        7.4192932356      -12.0523502059
 H         3.4047556744        7.8997128668      -10.3405727734
 H         2.1317416071        6.1677397387       -9.4333198575
 H         2.8234383778        4.9258885347      -10.6308785084
 H        -0.5634895713        2.3401572474      -10.7102719284
 H         0.5829144485        2.1244732920      -11.9664845485
 H        -0.7121670308        1.1808674189      -13.4860084898
 H        -2.1140898120        2.3059960539      -13.2109541385
 H        -2.3030122869       -3.0483338978       -9.6714556555
 H        -3.8220619608       -2.2129927348       -9.9603452382
 H        -3.4966874311       -0.9176464007       -7.6494172757
 H        -2.3707963068       -2.3705317641       -7.3662334687
 H        -2.2075108986       -5.3512272481       -4.6724143986
 H        -1.6883125170       -4.4679338847       -6.1580770544
 H        -1.1285076168       -6.7913552115       -6.6497604547
 H        -2.6911367580       -6.6920088059       -7.2574661107
 H        -5.3249271677       -9.3070266475       -6.5927133787
 H        -4.8394700280      -10.9105235969       -6.9089682825
 H        -5.9560000698      -10.6614992473       -8.9696887987
 H        -4.6034403564       -9.8816173907       -9.5287753943
 H        -9.4856319418       -7.1001282333       -8.4709518044
 H       -10.0661657654       -7.0550942415      -10.0274945660
 H       -10.7783704412       -5.0291214407       -9.5120651864
 H        -9.1686690237       -4.8469706636      -10.1081567702
 H       -10.9786757037       -7.4395357484       -6.0766159564
 H       -10.9470520667       -6.4109107827       -4.7682564836
 H       -10.0076162463       -8.3586587394       -3.8561754441
 H        -8.5398239058       -7.3646009489       -4.4541367390
 H       -10.6203169629      -13.1151991587       -5.4824762843
 H       -12.1388653582      -12.1066819765       -5.4110875180
 H        -9.8907287399      -12.4616060012       -3.3058902808
 H       -11.4309725118      -13.4026093012       -3.2066020866
 H       -13.8081305522      -10.6093374428       -4.4495723769
 H       -15.4482884522      -11.0975771665       -4.0616828509
 H       -14.1618846215      -12.3776107677       -3.9827140676
 H       -13.4294334962      -13.5860763190       -1.9373870817
 H       -13.6265536030      -12.9292046000       -0.3115178960
 H       -11.9354318909      -13.4351996157       -0.8337268405
 H       -13.2814719381      -11.0281997943        0.3127037808
 H       -12.6974203649       -9.5586984443       -0.6030545597
 H       -11.5569468813      -10.6786386702        0.1703898047
 H        -7.5155414160      -12.0888804663       -6.1303533952
 H        -7.6838436988      -10.7797801315       -7.2254387041
 H        -8.9110364247      -12.1513274055       -7.0916010719
 H        -8.8548333909      -10.3314270794       -3.3639397710
 H        -7.3485513598       -9.9187081313       -4.2777503061
 H        -7.9540980325      -11.7018481700       -4.0285733744
 H        -9.1199237251       -3.1043617885       -5.2248368604
 H       -10.7722679276       -3.5336143144       -4.9228634890
 H       -10.3435558654       -2.4090798936       -6.2355223935
 H       -11.7449430788       -4.0926140569       -7.9406672315
 H       -12.1330525425       -4.3333538246       -6.2249059273
 H       -11.9249562144       -5.7826243857       -7.5023088993
 H        -5.4805318399       -8.6808620812      -11.4798649064
 H        -5.7152882968       -6.9452971204      -11.2579567038
 H        -6.8432340062       -7.8323064341      -12.2432832976
 H        -7.7593233430      -10.0582936500      -10.3180678105
 H        -8.7149083483       -9.0719877922      -11.3806978831
 H        -9.0963252146       -9.2249999055       -9.6474099463
 H        -0.9444267195       -9.8590716013       -4.9794835929
 H        -0.9328456738       -9.8058052937       -6.7429200316
 H        -1.5487548336      -11.2031817610       -6.0547396907
 H        -3.2457867500       -9.6699081452       -3.7218740884
 H        -4.1188818606      -10.7651125740       -4.7479174335
 H        -4.5596371734       -9.0253649310       -4.4952625897
 H        -3.4620388231       -2.7572845827       -3.9749886397
 H        -3.5020047477       -1.4572834416       -5.0766027454
 H        -2.1536982280       -2.6078423551       -5.2036691607
 H        -6.3855830190       -3.4116765842       -5.7962221594
 H        -5.6445205217       -1.9335645623       -4.9591969398
 H        -5.7741761758       -3.5611768745       -4.2920737456
 H        -2.3036886559       -1.7448428719      -13.4217407844
 H        -3.3316166089       -2.1680284381      -12.1224243793
 H        -1.8364308999       -3.0682756596      -12.2918281065
 H         0.2843478979        0.0359453651      -11.4263695616
 H         0.0525557588       -1.1588897896      -12.7746223438
 H         0.4602283771       -1.6091162791      -11.1308148176
 H         0.6570690242        3.8185187023       -9.2088595029
 H        -1.0509463739        4.2073822212       -9.1870895493
 H        -0.0052517392        5.5096416547       -8.9152239161
 H        -2.2577334465        5.8820733605      -10.6366716204
 H        -1.3681362425        6.2256695826      -12.1888510372
 H        -0.9294168846        6.9596671920      -10.5778991467
 H         7.4081670665        5.4681508185      -11.0312615506
 H         7.8420358169        7.0853918825      -10.8198089066
 H         8.1039576671        6.2430474937      -12.4528465885
 H         6.8617896620        8.7508129942      -12.7749235724
 H         6.2539954871        8.9873126096      -11.2232230830
 H         5.0864702119        8.8563625872      -12.4565135370
 H         5.0749692299       -0.1332168472      -15.3416452463
 H         4.1234362881        0.0236213885      -16.7728615486
 H         3.4197154219        0.4559822857      -15.1970824337
 H         6.4657441844        2.8301946914      -17.3373706428
 H         6.1411082676        1.1016207851      -17.6232875762
 H         7.0705458194        1.6156216806      -16.2899699752
 H        -2.7238016402        5.2858066666      -17.8426223939
 H        -2.0075293792        5.3337443843      -16.3358931494
 H        -1.9188818424        3.8248231771      -17.3123595371
 H        -0.8316826768        3.7387566585      -19.6334446759
 H         0.4346727150        4.9781087550      -19.9960853493
 H        -1.3749340851        5.2531422028      -20.0944008453
 H         0.8937313826       11.6706888797      -16.9056502503
 H         2.5679175435       11.2393606645      -16.5077082095
 H         1.5522535984       11.9683297969      -15.2758241648
 H         2.2244176603        8.7255271310      -14.0853487584
 H         1.5051645189       10.0499439711      -13.2958047060
 H         2.9806730058       10.0132339973      -14.3541132399
 Na       -0.0847229276        6.7899595405      -14.5964774530
 Na       -6.5956357561       -4.9578415099       -7.7717270970
