232

 C        -1.2416395142       11.2064210996      -15.1024669844
 C        -0.4637773288        9.9169763213      -15.1057984775
 O        -0.9513096932        8.8908406982      -14.5749695652
 C         1.0581949924        9.9917952288      -15.4857375678
 C         1.2274838275        8.6678820666      -16.5100941838
 O         1.5474375096        7.5840672708      -16.0405350849
 C         0.8177236794        9.0231888259      -17.9808415769
 C         0.6905481076        7.7115029040      -18.7871782574
 C        -0.3245339572        6.7891384096      -17.8914731749
 O        -0.7216641277        7.2974134350      -16.8946965489
 C        -0.4258906588        5.1362549869      -17.9384119818
 C         0.6650466848        4.5277126671      -17.0380166560
 O         0.8619989478        4.7876774250      -15.8740326651
 C         1.4268999819        3.2885669423      -17.6773152691
 C         2.3176413100        2.5993148851      -16.6994327960
 C         3.7861048757        2.7403319103      -17.0599206277
 O         4.1729114068        3.5715314561      -17.8884056933
 C         4.8644457176        1.9596986206      -16.2501625269
 C         5.1534787730        2.7581183581      -14.8282509469
 O         5.0443434748        2.1409407736      -13.7751237023
 C         5.4360774267        4.2765150662      -14.8829899311
 C         6.0472342412        4.9264659088      -13.6038545585
 C         5.4989030674        6.3580245461      -13.2817809980
 O         4.7560999147        7.0111861660      -14.0358311174
 C         6.0031617941        6.9592127516      -11.9033094895
 C         4.9068874493        6.3485476851      -10.8034223945
 O         5.2281585737        5.4194500782      -10.1580700570
 C         3.4371879333        6.7744169584      -10.8490713887
 C         2.4822679270        5.6509736776      -10.6078253659
 C         1.1533889119        5.8861318543      -11.3558049454
 O         1.0548932964        6.6333716618      -12.3403874077
 C        -0.1723769234        5.1258694585      -10.9565128720
 C        -0.4371880204        4.0028248348      -12.1811592250
 O        -0.4334216130        4.3634886981      -13.3427527550
 C        -0.5899484193        2.4467180554      -11.8345967455
 C        -1.4430081214        1.4204732927      -12.7653959555
 C        -2.3453872928        0.5101464787      -11.8940992049
 O        -3.4942867554        0.7684761892      -11.6050823905
 C        -1.6622700551       -0.8780733596      -11.4930044245
 C        -1.8636700269       -1.1084741875       -9.9747179190
 O        -1.2408193670       -0.3090966391       -9.2288236188
 C        -2.8816202241       -2.1384171912       -9.3867447867
 C        -3.2025764436       -1.7785618272       -7.9409579113
 C        -4.3226512341       -2.8031880325       -7.3479289426
 O        -5.2589973214       -3.1895190182       -8.0771445836
 C        -4.2910549482       -3.2711263027       -5.8341417215
 C        -3.8820628734       -4.8286132568       -5.9519532180
 O        -4.7300153171       -5.5561054217       -6.3797220552
 C        -2.5118765098       -5.3346074455       -5.6849576988
 C        -2.1990010455       -6.6879469030       -6.3449220155
 C        -2.4879602882       -7.7613540909       -5.3146751698
 O        -2.2760392769       -7.5616338635       -4.1437049145
 C        -2.7899350219       -9.2240020878       -5.8002294007
 C        -3.3851012346       -9.3307025943       -7.3084373721
 O        -2.7213490761       -9.1291524819       -8.2900538184
 C        -4.8305835766       -9.9652035525       -7.4629281389
 C        -5.5830435663       -9.7500444645       -8.7854051382
 C        -6.1610988311       -8.3721157431       -8.8132773254
 O        -5.9231886614       -7.5684860379       -7.9127946451
 C        -7.1678815270       -8.0621296386      -10.1289392855
 C        -7.7888684772       -6.7400417272       -9.7824130742
 O        -7.1407583699       -5.7507059258       -9.7236058700
 C        -9.2768270300       -6.6450808031       -9.3903892113
 C        -9.8080694996       -5.0770446686       -9.4124562335
 C        -9.3545827360       -4.2156707711       -8.1795362706
 O        -8.5114186310       -3.3734628784       -8.2420390698
 C       -10.1497698990       -4.5607240947       -6.7901443096
 C        -9.4236613644       -5.7626465130       -6.0571503601
 O        -8.2064567981       -5.8115929800       -6.0145766440
 C       -10.2461618322       -6.8838407987       -5.3964808265
 C        -9.4708335325       -8.0650469022       -4.8389841297
 C        -8.9040555251       -8.9898474973       -5.8442678649
 O        -8.4849963869       -8.5689301885       -6.8874800940
 C        -8.9525853858      -10.4882101651       -5.4739621079
 C       -10.5450847318      -10.8214211238       -5.6176687234
 O       -11.3575219189       -9.9961215795       -5.9623411335
 C       -10.9757277742      -12.1929023004       -5.0561199988
 C       -10.7602272616      -12.3980740436       -3.5397783281
 C       -11.4887769976      -11.2257906411       -2.6298105262
 O       -11.0892616026      -10.0900876016       -2.7375012105
 C       -12.7128203307      -11.5657880902       -1.6258805164
 C       -14.0041794916      -10.9625774978       -2.2158756767
 O       -14.7610154602      -10.3489463327       -1.5646828615
 C       -14.3661010146      -11.0994512733       -3.6739539266
 C       -12.7599262731      -13.1079020829       -1.2982615730
 C       -12.4265712427      -10.7370896016       -0.3527099412
 C        -8.1480169170      -11.3758746443       -6.4685039993
 C        -8.3694776949      -10.6116107152       -3.9660664348
 C       -10.0243270511       -3.4496401278       -5.8029006927
 C       -11.7077423599       -4.8020815510       -7.2947134656
 C        -6.1895525149       -7.9471368258      -11.2853436637
 C        -8.1691583174       -9.1602599846      -10.3812087049
 C        -1.4453401120       -9.9804511353       -5.8208856260
 C        -3.7194020526       -9.8054590359       -4.7095785742
 C        -3.1202146070       -2.4691130951       -5.0535382339
 C        -5.6678536366       -3.0347120958       -5.2153227902
 C        -2.2679559612       -1.9903974626      -12.3565586038
 C        -0.1623394597       -0.9754073386      -11.6846197488
 C        -0.0637517525        4.5299942208       -9.4935791215
 C        -1.5004539164        6.1237509800      -10.9103409410
 C         7.3378813097        6.3392104486      -11.6822357158
 C         6.1915785415        8.4964128932      -12.0917732510
 C         4.4808148479        0.5374303700      -15.7906289221
 C         6.1960356242        2.0415001757      -17.0234588328
 C        -1.7465868818        4.7574963204      -17.2878830711
 C        -0.4436039145        4.6993326036      -19.4816347747
 C         1.4909048540       11.3264527238      -16.1459190231
 C         1.9450695961        9.7561425428      -14.2825375019
 H        -2.3344172508       11.0402760485      -15.1259384083
 H        -1.1186805231       11.8595733888      -15.9698697082
 H        -1.1295658134       11.7757128306      -14.1853513420
 H         1.4869859533        9.7119332572      -18.4749637222
 H        -0.1799923399        9.6420290132      -18.0375955386
 H         1.5542554234        7.0529554750      -18.6994282015
 H         0.2592674630        7.7460608014      -19.7703596603
 H         1.8720767332        3.4771609807      -18.6393259851
 H         0.5986890303        2.6058424613      -17.9252054759
 H         1.9694264314        1.5461136259      -16.6750400944
 H         2.1368102191        3.0415305762      -15.6845605899
 H         4.4462724992        4.8112105737      -14.9797427202
 H         6.0230007700        4.5421125284      -15.7696876834
 H         7.1620303975        5.0192573971      -13.7082390192
 H         5.6985215588        4.2562490171      -12.7681411104
 H         3.2207387565        7.2659084419      -11.8659465116
 H         3.4366291259        7.6076632724      -10.0973936946
 H         2.3721541447        5.6232361831       -9.5212659003
 H         2.9055350653        4.6672171040      -10.9364050968
 H        -0.8689536937        2.3967499303      -10.8258556060
 H         0.4094266713        2.0321774793      -11.7472502310
 H        -0.7008869786        0.8787853347      -13.3963758182
 H        -2.0124980875        2.0380533482      -13.3896722338
 H        -2.3892506723       -3.1830064659       -9.5610626883
 H        -3.8360085156       -2.1581672164       -9.7894453736
 H        -3.7648294224       -0.8563698033       -7.9959821167
 H        -2.3633058905       -1.6599681119       -7.3151534396
 H        -2.3969595825       -5.4911899053       -4.6002116598
 H        -1.8621464861       -4.4617742634       -5.9215140073
 H        -1.2164746504       -6.7395053414       -6.7345045654
 H        -2.7932647127       -6.7365184637       -7.3191172700
 H        -5.4729045329       -9.6871751170       -6.4978515837
 H        -4.6829824998      -11.0598640416       -7.1907228921
 H        -6.0927082599      -10.6048631060       -8.9995775627
 H        -4.8190069434       -9.7010261619       -9.5924924694
 H        -9.5540317594       -7.0255437568       -8.4877391462
 H        -9.9493945873       -7.1872959742      -10.0977742396
 H       -10.8798281227       -5.0961786680       -9.4952658356
 H        -9.3749729940       -4.6970869062      -10.3294096792
 H       -11.0270851575       -7.2779552804       -6.0485587554
 H       -10.8892275028       -6.4428023889       -4.6138265392
 H       -10.1563891317       -8.5317181834       -4.1795813452
 H        -8.5992259875       -7.6371359646       -4.3832031613
 H       -10.4240503555      -12.9848026777       -5.4651640774
 H       -11.9911183161      -12.3618384303       -5.2380631226
 H        -9.7355479004      -12.4304832683       -3.2300446007
 H       -11.2721813951      -13.3144696522       -3.3242088701
 H       -13.6863125963      -10.5063802869       -4.3189398042
 H       -15.3270284628      -10.6549032911       -3.8350006332
 H       -14.3670158924      -12.2164770805       -3.9092981512
 H       -13.1358536459      -13.6183102716       -2.2076373177
 H       -13.6124379455      -13.2257196005       -0.6502234420
 H       -11.8571145051      -13.5179057665       -0.9110081073
 H       -13.0608319439      -11.0748865513        0.4781030248
 H       -12.6235472630       -9.7018245059       -0.6312590593
 H       -11.4358036155      -10.7376376598       -0.0717091372
 H        -7.6621189999      -12.0930094160       -5.8406734758
 H        -7.3680509779      -10.8176850370       -7.0038193212
 H        -8.8082113113      -12.0410314896       -7.0081508382
 H        -9.1958931449      -10.2486493144       -3.3040756865
 H        -7.5250713491       -9.9217642690       -3.9007968568
 H        -8.1960332387      -11.6162847220       -3.6935173594
 H        -9.0347413472       -3.3120252071       -5.3971170103
 H       -10.6858334418       -3.3763767080       -4.9527897920
 H       -10.1249747826       -2.4745873789       -6.3959569701
 H       -11.9659237310       -4.1440503311       -8.1959507033
 H       -12.3797468606       -4.4235443368       -6.5417886130
 H       -11.9741909731       -5.9037641346       -7.6251872644
 H        -5.6560816335       -8.8502466677      -11.3831877718
 H        -5.5446239593       -7.0645060653      -11.2773338156
 H        -6.8425232925       -7.8378161111      -12.1751921452
 H        -7.6062747465      -10.0442158565      -10.8035562717
 H        -8.9103752289       -8.8761186288      -11.0620697787
 H        -8.7553508591       -9.5112108723       -9.4941224083
 H        -0.9539390209       -9.9435607854       -4.8675659190
 H        -0.7542783262       -9.7007297824       -6.6107812386
 H        -1.6273968100      -11.0470250105       -6.0541441847
 H        -3.4438721457       -9.5453365329       -3.6596569516
 H        -3.8714478251      -10.8897060788       -4.7025054294
 H        -4.6213239751       -9.2514949244       -4.8195096338
 H        -2.7844115680       -2.8447518104       -4.0738665675
 H        -3.4086290250       -1.4345615722       -4.8453198424
 H        -2.2506376291       -2.4291999358       -5.7157042363
 H        -6.4784043632       -3.4439562606       -5.7930071892
 H        -5.7749808556       -1.9298431682       -5.0296881137
 H        -5.9434862588       -3.4953263665       -4.2582443126
 H        -2.0816062658       -1.8852746680      -13.4320802867
 H        -3.3832659511       -1.9465423137      -12.2349345476
 H        -1.9505443780       -3.0117657543      -12.0164406262
 H         0.4223996546       -0.2533461104      -11.1174009480
 H         0.1075716821       -0.9957846225      -12.7306432824
 H         0.1859977409       -1.8979392303      -11.3177923131
 H         0.6137511536        3.6255585232       -9.5163469298
 H        -1.0450361597        4.1948236825       -9.1378180490
 H         0.2818719348        5.2635702938       -8.8077499409
 H        -2.2902128189        5.7935668490      -10.1926675385
 H        -1.9521673749        6.1434012696      -11.9247576695
 H        -1.2707998949        7.0757825232      -10.4903074415
 H         7.3923431374        5.3160085450      -11.3247032398
 H         7.7478262441        6.9498038732      -10.8765522743
 H         8.0072487849        6.4512240326      -12.5515763533
 H         6.9885323055        8.6479065429      -12.7311219809
 H         6.6778914790        8.7927394335      -11.1813582075
 H         5.3781997005        9.2508231613      -12.1986634249
 H         5.2432089107       -0.0662858087      -15.2378898049
 H         4.2180367541       -0.1215310156      -16.6196325933
 H         3.5252519763        0.6113907775      -15.2304675313
 H         6.4921955490        2.9633295998      -17.4296013941
 H         6.0798649327        1.2709596668      -17.8729452420
 H         6.9627377972        1.7386775265      -16.3731709282
 H        -2.6937538502        5.2080519105      -17.7516737779
 H        -1.8583384498        5.1068517609      -16.3154636846
 H        -1.8041957630        3.7044496881      -17.2899349781
 H        -0.7049905546        3.6078679648      -19.5869091491
 H         0.4034764942        4.9304462692      -20.0878116226
 H        -1.3398021470        5.0918971424      -19.9032838474
 H         0.7887093058       11.6372115401      -16.9272192296
 H         2.3916471422       11.0595458187      -16.6645572931
 H         1.7608173157       12.1170729073      -15.4477096057
 H         1.8455215168        8.7717975450      -13.8827705682
 H         1.7862586191       10.4107691367      -13.4678576471
 H         2.9539937912        9.5710679580      -14.5454960188
 Na       -0.0579872692        6.6404918666      -14.6341706405
 Na       -6.6705709368       -5.0545551832       -7.7667923450
