232

 C        -1.3212776227       11.2023880347      -15.1911512588
 C        -0.4722964054        9.9454686737      -15.0351923541
 O        -0.9831518230        8.9338798344      -14.6873535094
 C         1.0635253850        9.9393927855      -15.5159589445
 C         1.1641283008        8.7621736316      -16.5115991766
 O         1.4595492990        7.6906649033      -15.9753678472
 C         0.8208673192        8.8904800384      -17.9822701592
 C         0.4733704305        7.6306582344      -18.7599143884
 C        -0.3175841991        6.6605500918      -17.7514356443
 O        -0.8511474510        7.2993671866      -16.8687004165
 C        -0.4072591395        5.2288843299      -17.8857970686
 C         0.6828973394        4.5707422307      -17.0294913509
 O         0.9316400731        4.9169823298      -15.8585185236
 C         1.4627402660        3.3333313672      -17.5746134710
 C         2.3944990161        2.6053732308      -16.7157843507
 C         3.8613248262        2.9041926946      -17.0702428751
 O         4.1409535273        3.6873547088      -17.9286593728
 C         4.9363335139        2.0837088615      -16.2828728556
 C         5.1847862157        2.7900120220      -14.9665761057
 O         5.1938156231        2.1513005093      -13.9002274276
 C         5.5874158363        4.2784177816      -14.9988352466
 C         5.9076758602        4.8493899606      -13.6277227715
 C         5.4993339328        6.2724222312      -13.3050339450
 O         4.7425624509        6.9179559125      -14.0262410634
 C         6.0479070078        6.8647621001      -11.8906285201
 C         4.9460320806        6.2296472391      -10.9078760278
 O         5.3242254421        5.2591956583      -10.3238444543
 C         3.4805515651        6.7155715886      -10.8182789066
 C         2.4216108880        5.5077389840      -10.7023593159
 C         1.0972412336        5.8450266434      -11.3972299089
 O         1.2059569831        6.5913438420      -12.2970172552
 C        -0.3433447981        5.0573789028      -11.0466826520
 C        -0.5096448489        4.0126260404      -12.1552988798
 O        -0.3579264503        4.2964576331      -13.3271622715
 C        -0.7098667539        2.5043578948      -11.7182135117
 C        -1.4985443066        1.6163973729      -12.7321429182
 C        -2.2298107002        0.4677775345      -11.9390183438
 O        -3.3675649243        0.6778094712      -11.6450910727
 C        -1.6812424926       -0.9232689305      -11.5089171527
 C        -1.9667168815       -1.0285183429       -9.9510920223
 O        -1.2731601285       -0.4128511556       -9.2002831756
 C        -2.9666518311       -2.0021582721       -9.4095363813
 C        -3.4128480181       -1.5786652551       -7.9703153373
 C        -4.3638088303       -2.5523346875       -7.2786427724
 O        -5.1905128334       -3.0861834113       -8.0044287574
 C        -4.2443405727       -3.1409161893       -5.9018494791
 C        -3.9970900696       -4.6997808503       -6.0070471576
 O        -4.8386834625       -5.5115851033       -6.3614046815
 C        -2.5924541268       -5.1989110330       -5.6468426641
 C        -2.2615031452       -6.5921676729       -6.3334546907
 C        -2.4906608724       -7.7592547583       -5.4055993172
 O        -2.3789567951       -7.5655552357       -4.1961443659
 C        -2.8094757982       -9.2723793958       -5.8410542439
 C        -3.4600174249       -9.4277360524       -7.2264063805
 O        -2.7735460592       -9.1316090746       -8.2083704946
 C        -4.8258462746      -10.1347025063       -7.4350853794
 C        -5.5464604830       -9.7274981178       -8.7037592906
 C        -6.1709767785       -8.3529603066       -8.7616749007
 O        -6.0134788023       -7.4646355942       -7.9026630994
 C        -7.1272658777       -8.0906377576      -10.0571230322
 C        -7.7737337741       -6.6483097262       -9.7898180532
 O        -6.9782324965       -5.7198664969       -9.8406011559
 C        -9.2291238568       -6.5451078520       -9.4212836457
 C        -9.7429049322       -5.0098310338       -9.5510357150
 C        -9.4134305834       -4.2586640125       -8.2791400580
 O        -8.5002699066       -3.4674919823       -8.2617600010
 C       -10.1958375355       -4.5241806528       -6.9653131950
 C        -9.4975842201       -5.7644422497       -6.2825600205
 O        -8.2938966597       -5.6437165544       -6.1318509490
 C       -10.3347433342       -6.7262442793       -5.3817705386
 C        -9.5486273796       -7.9622751894       -4.8067830631
 C        -8.9101447063       -8.8757658412       -5.8652184474
 O        -8.4062237496       -8.6191862191       -6.9345657414
 C        -8.9846740602      -10.4375065864       -5.3602366625
 C       -10.5674054169      -10.7900875179       -5.3977182046
 O       -11.4148540949      -10.0289458422       -5.8333251836
 C       -10.9405653078      -12.1718462142       -4.9857671973
 C       -10.8551694325      -12.3153608954       -3.4819992813
 C       -11.5389123574      -11.2149617342       -2.6601407848
 O       -11.1820389161      -10.0167400502       -2.6899306650
 C       -12.5935989140      -11.5785499263       -1.7037181393
 C       -13.9987343683      -10.9254868774       -2.2287848690
 O       -14.6930459485      -10.4055552926       -1.4054226831
 C       -14.3185461446      -11.0317223730       -3.7327243859
 C       -12.7256753954      -13.1063128201       -1.5278790491
 C       -12.1538014474      -10.9387931215       -0.2636253225
 C        -8.1646719114      -11.3355981008       -6.2969841583
 C        -8.4352893174      -10.5464413268       -3.9849846297
 C       -10.0290819926       -3.4145814379       -5.9708552389
 C       -11.7297738304       -4.8151859389       -7.1406637025
 C        -6.1551511223       -7.9294890638      -11.2620296500
 C        -8.0710968636       -9.2786526499      -10.3256234103
 C        -1.4077439202       -9.9357374189       -5.7563095682
 C        -3.6919241731       -9.9594930084       -4.7889859806
 C        -3.1102332175       -2.5030221635       -5.0139720858
 C        -5.6104705771       -3.0664062212       -5.2110996461
 C        -2.4019853585       -1.9980673619      -12.3649085978
 C        -0.0640771186       -0.9959322240      -11.6815185678
 C        -0.0352805833        4.3434553347       -9.6966422811
 C        -1.4899085113        5.9918579587      -10.8658518232
 C         7.4352219105        6.3034815178      -11.5580664830
 C         6.1579640015        8.4024711212      -11.9278374152
 C         4.6176690219        0.6290834422      -15.9465985792
 C         6.2076054288        2.0967144464      -17.1237574193
 C        -1.7009101692        4.6990062129      -17.2812931230
 C        -0.3263206273        4.6776642266      -19.3552770340
 C         1.4132630574       11.2480762777      -16.2308304208
 C         1.9202635934        9.7035307799      -14.2469092074
 H        -2.3582565699       11.0420580786      -15.2374819515
 H        -1.0437742351       11.7845117759      -16.0713174597
 H        -1.2486927491       11.8596699159      -14.3220514635
 H         1.5801161966        9.3712946663      -18.6275578903
 H        -0.0294552040        9.6619823520      -18.1093688389
 H         1.2906635350        7.0684170657      -19.2261019986
 H        -0.3544110770        7.9357677930      -19.4588183548
 H         2.1060725676        3.6908345099      -18.3932528552
 H         0.7263092779        2.6694630625      -18.0821064470
 H         2.1253431655        1.5395388320      -16.7070639075
 H         2.2591396308        3.0037542274      -15.7239582948
 H         4.8179215047        4.9661903364      -15.5116211991
 H         6.5451028909        4.3835575063      -15.5583163975
 H         6.9798879347        4.9012134984      -13.5776723253
 H         5.5187225416        4.1427672943      -12.8824537464
 H         3.2649059165        7.2054822178      -11.7702943215
 H         3.5256059473        7.5024373496      -10.0095960360
 H         2.4902711549        5.1566148153       -9.7541689252
 H         2.8035279147        4.6866742750      -11.3598584124
 H        -1.2101581210        2.5540511558      -10.7824191898
 H         0.1494566409        2.0187681871      -11.3950247336
 H        -0.7442963891        1.1825489374      -13.3594711126
 H        -2.1472159566        2.2846873804      -13.2405401332
 H        -2.3103027229       -2.9319258226       -9.2922396035
 H        -3.8475628753       -2.2970305219       -9.9793128471
 H        -3.8687400668       -0.6911622038       -7.9324895884
 H        -2.4736305125       -1.5449774199       -7.3650069942
 H        -2.3919312315       -5.3281951131       -4.5385720939
 H        -1.9595525834       -4.4165010003       -5.9291881904
 H        -1.3168482842       -6.5529053668       -6.9009650890
 H        -2.9275771901       -6.7031087465       -7.2087508539
 H        -5.4812728482      -10.0557547219       -6.6296946199
 H        -4.6046928661      -11.1973101451       -7.3685688434
 H        -6.2613525811      -10.6031067490       -8.6854768353
 H        -5.0300575212       -9.9370155224       -9.6600413705
 H        -9.5835781706       -6.7788023103       -8.3601383595
 H        -9.8496215045       -7.2508494242      -10.0345278033
 H       -10.8286067019       -4.9826059523       -9.6932006110
 H        -9.1961860869       -4.5514084755      -10.4490990921
 H       -11.1591593000       -7.2023893032       -5.9422552824
 H       -10.9227319106       -6.0864627743       -4.6797959564
 H       -10.3401546080       -8.5952097768       -4.4208139853
 H        -8.8323150526       -7.6767739786       -4.0408862003
 H       -10.1174438001      -12.7655308143       -5.3347153527
 H       -11.8502098522      -12.5519291446       -5.3248571668
 H        -9.8601655286      -12.2331036596       -3.0927810281
 H       -11.2753459249      -13.2901104272       -3.2035190650
 H       -13.3476752722      -10.6409082494       -4.1166002303
 H       -15.0752243339      -10.3922727658       -4.1775049752
 H       -14.4106604636      -12.0803015179       -3.9926299625
 H       -12.9606089903      -13.5672585352       -2.3809707099
 H       -13.6007345723      -13.2381517227       -0.9589464157
 H       -11.8592586932      -13.5542720798       -1.0275661615
 H       -12.9409412243      -11.1775027938        0.4492833242
 H       -12.1412959696       -9.8716296278       -0.4175474927
 H       -11.1737298754      -11.1870668940        0.0412306096
 H        -7.7709177377      -12.2051732508       -5.7658597894
 H        -7.2559079323      -10.6866687696       -6.5940310029
 H        -8.7460054649      -11.7214490205       -7.0682254943
 H        -9.2084140740      -10.2518898940       -3.2317603844
 H        -7.6033560665       -9.9536703906       -3.9238160570
 H        -8.2681381225      -11.5909195166       -3.7889122742
 H        -8.9769317410       -3.2866554953       -5.7159454859
 H       -10.5780628208       -3.5258682491       -5.0474436152
 H       -10.2214757063       -2.4206754246       -6.3108668772
 H       -12.4207968067       -4.0554461478       -7.5897930762
 H       -12.1345635843       -4.9766052350       -6.1808224213
 H       -11.7666976570       -5.6924163323       -7.7636715890
 H        -5.7221984552       -8.9151234791      -11.4577252486
 H        -5.3886097600       -7.1256369304      -11.1923416000
 H        -6.7699227305       -7.6436291497      -12.0895306242
 H        -7.6598219833      -10.0671550906      -11.0493586209
 H        -8.9729630306       -8.8932264495      -10.7241466813
 H        -8.4760120503       -9.7778978234       -9.4635538396
 H        -0.9961377803       -9.9646450760       -4.7528509143
 H        -0.6678299803       -9.4734776118       -6.4681226956
 H        -1.4862985511      -10.9480210392       -6.0613493449
 H        -3.3508479368       -9.8388694562       -3.7692851447
 H        -3.6261110853      -11.0467148265       -4.9364544625
 H        -4.7443418534       -9.6138817821       -4.7860133984
 H        -2.9058372530       -2.9948142001       -4.0668082054
 H        -3.3904401743       -1.4794367176       -4.7402229479
 H        -2.1937717738       -2.4598428504       -5.5708236568
 H        -6.3533759912       -3.6810100153       -5.7275057292
 H        -5.9535774140       -2.0871585889       -5.0675228904
 H        -5.6864959203       -3.5107447753       -4.2376464931
 H        -2.0020486705       -2.0223293849      -13.3932465995
 H        -3.5358542367       -1.8662357990      -12.4877902479
 H        -2.2117875199       -2.9610061291      -11.9225141006
 H         0.4271286780       -0.4834716547      -10.8915385761
 H         0.3031317174       -0.6169718001      -12.6293567101
 H         0.3005444590       -1.9952873792      -11.6345500683
 H         0.7322193166        3.6741443277       -9.9298163192
 H        -0.9236693254        3.7705120131       -9.2592750937
 H         0.3451815404        5.0415963466       -8.8868659236
 H        -2.2152794498        5.6300243129      -10.1991884612
 H        -1.9730751202        6.1547601519      -11.8155485273
 H        -1.1913950700        6.9176798295      -10.3201206451
 H         7.5168868175        5.1780415093      -11.5063763615
 H         7.7469343666        6.6949033903      -10.5862692096
 H         8.1690841232        6.6568981857      -12.2322632529
 H         6.8154240658        8.7022473999      -12.6916667165
 H         6.6945091884        8.7645864777      -11.0422153691
 H         5.1808239961        8.9996995887      -11.8827129639
 H         5.4530225828        0.1118906588      -15.4302460543
 H         4.4524348538        0.0176088662      -16.7858321784
 H         3.6765297851        0.5355528970      -15.3502641523
 H         6.5148141892        3.0649023241      -17.5118538096
 H         5.9495242583        1.5068029849      -18.0046337750
 H         7.1246042403        1.7069329084      -16.5373458309
 H        -2.6173160726        5.0912529413      -17.6082560168
 H        -1.7126197533        4.9185567279      -16.2371601189
 H        -1.6714542953        3.5788429794      -17.3370139559
 H        -0.4415660993        3.6328862182      -19.2776159362
 H         0.6360185600        4.8515770312      -19.8886492853
 H        -1.1251862302        4.9523808186      -19.9894732087
 H         0.7286063488       11.3278009235      -17.0920186091
 H         2.4130740267       11.1606395565      -16.6487203385
 H         1.3994965703       12.0844454521      -15.5423321432
 H         1.5234781019        9.0515616019      -13.4338784056
 H         2.0013999894       10.6503926421      -13.8240498075
 H         2.8059066535        9.0991662346      -14.3403695441
 Na       -0.0158102080        6.4396491652      -14.5226144622
 Na       -6.6889741023       -5.1611459054       -7.6025645054
