232

 C        -1.3984866396       11.1709384502      -15.2481008570
 C        -0.5558797451        9.9294288625      -15.1091751576
 O        -0.9586876075        8.8960792278      -14.6548815853
 C         0.9469217621       10.0069010677      -15.5420730331
 C         1.1557255304        8.7435597397      -16.4321208757
 O         1.5545520015        7.6543827485      -16.0633341639
 C         0.9248212911        8.8890062081      -17.9942930959
 C         0.3416023630        7.6573762575      -18.6914919650
 C        -0.4844372687        6.6899538400      -17.5892647187
 O        -1.2265629961        7.1491927017      -16.7566758077
 C        -0.3627046518        5.0744868634      -17.7941764320
 C         0.7755973551        4.5083030395      -17.0021879998
 O         1.0443556121        4.9404854560      -15.9092042079
 C         1.5029868694        3.3287571921      -17.5950361544
 C         2.4641709739        2.6471287230      -16.6498908311
 C         3.9374167168        2.9233101014      -17.0558487764
 O         4.1048196202        3.7566418630      -17.9090483698
 C         5.0653695635        2.1377853062      -16.4297199185
 C         5.3739220281        2.8627348886      -15.0018855458
 O         5.2848112020        2.2857854143      -13.9797937025
 C         5.7157927134        4.3496109105      -15.0576422595
 C         5.9102871432        4.7563577949      -13.6204121050
 C         5.5750014967        6.2491928749      -13.3492542015
 O         4.7622959599        6.8423450868      -13.9668551026
 C         6.0578773240        6.7550699919      -11.9336083337
 C         5.0403322644        6.0509593690      -10.9916781399
 O         5.3253812156        5.0155286640      -10.3628684673
 C         3.5332127655        6.6289099352      -10.8769177549
 C         2.5307221658        5.4267322654      -10.8335770702
 C         1.1639468354        5.8070814564      -11.5022558421
 O         1.0055110137        6.6100906575      -12.4216292974
 C        -0.0681853206        5.0043734712      -11.0177437186
 C        -0.4651589101        3.9455028321      -12.1579766080
 O        -0.4321832847        4.1943339383      -13.3514849271
 C        -0.9331542185        2.5941559132      -11.6335615209
 C        -1.4998825168        1.6982241087      -12.6893288165
 C        -2.1920573809        0.4601764359      -11.9928097313
 O        -3.3586775587        0.6699264991      -11.6930445195
 C        -1.6420498660       -0.9429622702      -11.5564531943
 C        -1.9066393174       -1.0387786394       -9.9159869141
 O        -1.2614346215       -0.3757222047       -9.1693978493
 C        -3.0743844931       -1.8888446858       -9.3701543227
 C        -3.5520337474       -1.4318900933       -7.9713159145
 C        -4.4183201177       -2.6053940153       -7.4161701390
 O        -5.2978995480       -3.0163352433       -8.0758871536
 C        -4.1852509485       -3.1386737081       -5.8551993261
 C        -3.9309036798       -4.5854679745       -6.0365084605
 O        -4.8471626525       -5.3482030280       -6.2832834663
 C        -2.5325528124       -5.2300696983       -5.7662851829
 C        -2.4459332157       -6.6277853505       -6.3963190209
 C        -2.6462034275       -7.7752851964       -5.3360827996
 O        -2.4837777755       -7.5365392202       -4.1623440572
 C        -2.8135887765       -9.3618086736       -5.8334929993
 C        -3.3821456483       -9.5070972489       -7.2624747912
 O        -2.8242701587       -9.0323196135       -8.2438046287
 C        -4.7952810440      -10.2099696241       -7.3547218908
 C        -5.5324621993       -9.7574626658       -8.6503044851
 C        -6.2408826886       -8.3652143806       -8.7223153373
 O        -6.0148014098       -7.5193471795       -7.9300132590
 C        -7.0712708723       -8.0903560850      -10.0025971305
 C        -7.7393667926       -6.6332603520       -9.8591826419
 O        -6.9468821244       -5.6523833555       -9.9706199517
 C        -9.1607601472       -6.4787289008       -9.5582331845
 C        -9.6742390626       -5.0338378564       -9.6650036303
 C        -9.5095449290       -4.2564695872       -8.3898243217
 O        -8.4890680302       -3.5738256888       -8.2424489316
 C       -10.2630414538       -4.5555128510       -7.0440661986
 C        -9.5119935112       -5.6736817081       -6.2422495439
 O        -8.3007594150       -5.7352696904       -6.1771169349
 C       -10.3859562340       -6.6367844996       -5.5305051686
 C        -9.5778128431       -7.7944871169       -4.8997188220
 C        -9.0232702823       -8.8562756168       -5.8194595355
 O        -8.4369223621       -8.5820953893       -6.8565555368
 C        -9.0170854327      -10.3287747765       -5.2977505476
 C       -10.4729988690      -10.7656561129       -5.3887712623
 O       -11.3766221074      -10.0207713070       -5.7160994284
 C       -10.8369754856      -12.2269444575       -4.9705555323
 C       -10.8292796139      -12.3734513281       -3.3897234266
 C       -11.4758467066      -11.1660209693       -2.6402409786
 O       -11.1703571383      -10.0070694238       -2.8600031917
 C       -12.6344641150      -11.5911034712       -1.6424138528
 C       -13.8859294166      -10.9215274833       -2.0729641568
 O       -14.7355616509      -10.4226185966       -1.3100311608
 C       -14.1687196094      -10.9997148694       -3.6384686726
 C       -12.9209132149      -13.1389225614       -1.5624940241
 C       -12.1031050375      -11.1833784242       -0.2654595843
 C        -8.2842428837      -11.2777048947       -6.2981266650
 C        -8.3521173256      -10.3354313234       -3.8671104656
 C       -10.0910359683       -3.2183647438       -6.1276183580
 C       -11.8115527689       -4.8153601294       -7.1055162640
 C        -6.0959041449       -7.9052960481      -11.2658449816
 C        -8.0195401055       -9.2603117113      -10.1899959516
 C        -1.3740497220       -9.9068648142       -5.8083831137
 C        -3.6634183134      -10.0451407494       -4.6908242855
 C        -3.1954730484       -2.4423562968       -4.9342672500
 C        -5.5759301384       -2.9616074284       -5.0724754335
 C        -2.4050820817       -1.9675374833      -12.3371435342
 C        -0.0722795155       -1.0303167331      -11.7241350630
 C         0.0335810413        4.1797689983       -9.6376694686
 C        -1.3621006806        5.9243886303      -10.9320141042
 C         7.4669751177        6.2632505512      -11.4130229974
 C         5.9221352798        8.2623942345      -11.7946171214
 C         4.6373774094        0.6888807626      -16.1778256320
 C         6.3831342328        2.1249815818      -17.3099187720
 C        -1.7839566262        4.5778822081      -17.2400545544
 C        -0.2571995377        4.7440848632      -19.3395290817
 C         1.4373075744       11.3243418656      -16.3051805790
 C         1.8397169006        9.7099244722      -14.2713188416
 H        -2.4848489548       11.1418713590      -15.0755115998
 H        -1.1490552550       11.7202195874      -16.1346158078
 H        -1.1079606747       11.8111121459      -14.4224145948
 H         1.8577950787        9.0941809217      -18.6038387805
 H         0.3653525827        9.7271155385      -18.2287243295
 H         1.1173734524        6.9568006529      -18.9911223798
 H        -0.3736086437        7.9669689398      -19.4791770351
 H         2.2005135796        3.7155478062      -18.3960349980
 H         0.7604164320        2.7204002332      -18.1287143013
 H         2.2824841591        1.5921368696      -16.7240376058
 H         2.2685437638        2.9853727027      -15.6494162425
 H         4.8709690204        4.9042991115      -15.4726019977
 H         6.6305457819        4.6203123567      -15.6287216062
 H         6.8373687484        4.3877085955      -13.2300998847
 H         5.1424847607        4.2278435665      -13.0962916423
 H         3.2388663758        7.2544516937      -11.6934742020
 H         3.5170496572        7.1753919954       -9.9231280584
 H         2.3936502267        5.3704453726       -9.7012576083
 H         2.8824223882        4.4736018438      -11.1249901366
 H        -1.6352656488        2.7496484897      -10.7885977205
 H        -0.1501698022        2.1168180537      -11.0508581108
 H        -0.6899906675        1.3992597950      -13.3056601196
 H        -2.2306078609        2.4257267292      -13.1743986132
 H        -2.9691670653       -2.9182955199       -9.3659693226
 H        -3.9762672462       -1.6308188709      -10.0612743883
 H        -4.2535936102       -0.4800162437       -7.9179678831
 H        -2.6810741205       -1.2650205996       -7.3343244741
 H        -2.4253508988       -5.4754454633       -4.6863002465
 H        -1.6723374413       -4.5789333692       -5.8983267828
 H        -1.3436323569       -6.6706973819       -6.6933453166
 H        -2.8227368438       -6.7307401245       -7.3709205779
 H        -5.3798460321      -10.0264670827       -6.5284285159
 H        -4.6366575306      -11.2317572515       -7.3153647210
 H        -6.1434224985      -10.7261134166       -8.8020385979
 H        -4.8773169384       -9.8295995255       -9.5384033244
 H        -9.4549001537       -6.7457986324       -8.4284656835
 H        -9.7835096597       -7.1711250255      -10.1427193110
 H       -10.7692854162       -5.1071910869       -9.9443475960
 H        -9.1000091901       -4.5685016140      -10.4908510596
 H       -11.3146888909       -6.9229622723       -6.0614352336
 H       -10.8053041025       -5.9869125571       -4.7387661934
 H       -10.1729349431       -8.2574028016       -4.0509935192
 H        -8.7102870606       -7.1878970085       -4.5486247787
 H       -10.2124415967      -13.0095217382       -5.4540301612
 H       -11.9381491273      -12.4232575675       -5.1891137644
 H        -9.8618505652      -12.3983576963       -2.8406986246
 H       -11.3713409671      -13.2910926646       -3.1187177112
 H       -13.3327112520      -10.6501876523       -4.2224168997
 H       -14.9826169763      -10.2645059961       -3.8631596903
 H       -14.4725435214      -11.9788432882       -3.8888514114
 H       -13.3556518824      -13.4758284888       -2.5070910668
 H       -13.6363112021      -13.3971443266       -0.8204779554
 H       -12.0006455213      -13.6249073704       -1.3542107600
 H       -12.9243600282      -11.1801511617        0.4267813508
 H       -11.7082939687      -10.1788193928       -0.3176620086
 H       -11.1924946714      -11.8383522659        0.0008964942
 H        -8.2662469470      -12.3227795905       -5.9110694047
 H        -7.3009018050      -10.9122995363       -6.2960635084
 H        -8.7690420267      -11.2734718526       -7.3043673157
 H        -8.8834764039       -9.9971911617       -3.0518844394
 H        -7.3971979615       -9.8489176775       -4.0391339229
 H        -8.2003323920      -11.4058334619       -3.7151430156
 H        -9.0346900816       -2.9849863432       -6.1255820077
 H       -10.3264054759       -3.4457105373       -5.0941377153
 H       -10.4999021150       -2.3029425266       -6.3355510482
 H       -12.3709507327       -3.9536085941       -7.1875525907
 H       -12.2694903258       -5.1922258202       -6.1728992443
 H       -12.0166240415       -5.3561047736       -7.9306310283
 H        -5.6068712656       -8.8899298273      -11.4930743625
 H        -5.3511623133       -7.1527954613      -11.0420633255
 H        -6.6216590812       -7.4828619308      -12.1107227285
 H        -7.5870245915      -10.0440886944      -10.7071470258
 H        -8.9709128610       -8.8858126983      -10.7230921580
 H        -8.4750422430       -9.6197932257       -9.3030499532
 H        -0.8798407782       -9.9221806886       -4.8209440585
 H        -0.7665352554       -9.2880721086       -6.5025786067
 H        -1.3363675809      -10.9702433630       -6.1354105958
 H        -3.0648901745      -10.0848629413       -3.8112922996
 H        -3.6636421879      -11.1138811469       -4.9248618255
 H        -4.6949234763       -9.7195549294       -4.4211869234
 H        -3.1924246018       -2.9146690439       -3.9682389156
 H        -3.5047959656       -1.4234358096       -4.7605867581
 H        -2.1728900518       -2.4944232650       -5.2763697279
 H        -6.3518577666       -3.5559920522       -5.5256976370
 H        -5.9108753085       -1.9709230613       -4.9658448254
 H        -5.6138264755       -3.3631496315       -4.0973683358
 H        -2.0447681079       -2.0746520134      -13.3709609650
 H        -3.4285325924       -1.6963268729      -12.4359068043
 H        -2.3281333390       -2.9372038259      -11.8561946042
 H         0.4346792301       -0.6446966132      -10.8520018523
 H         0.3535348701       -0.4745734375      -12.5504798611
 H         0.2501209237       -2.0833549686      -11.8556038650
 H         0.8457209211        3.4399848157       -9.5726026523
 H        -0.9425240017        3.7465515386       -9.5369263975
 H         0.1454077176        4.8341672479       -8.7185776251
 H        -2.2200255522        5.3705223167      -10.6179634747
 H        -1.5730650816        6.2636126454      -11.9123253135
 H        -1.3225888509        6.7096214765      -10.1825776894
 H         7.4997997279        5.2060995165      -11.5435233031
 H         7.6674936949        6.5091351630      -10.3686670969
 H         8.3404957407        6.7114806244      -11.9447996181
 H         6.4804361125        8.8142896633      -12.6589772330
 H         6.2984083024        8.7283264208      -10.8615821412
 H         4.8886527001        8.5174038698      -11.7894799371
 H         5.4636803977        0.1847135849      -15.7627020370
 H         4.4683518015        0.1002622066      -17.0994272221
 H         3.7860261114        0.4944095594      -15.5664698464
 H         6.6209887768        3.2440556994      -17.5046650215
 H         6.2112085808        1.7478560456      -18.2726058038
 H         7.2878534774        1.7703217986      -16.7639045710
 H        -2.5719899124        5.1088538948      -17.6959442669
 H        -1.8378129773        4.9229757620      -16.1439601288
 H        -2.0110809248        3.5068502095      -17.2133401962
 H        -0.3550866233        3.7347541189      -19.6220438639
 H         0.7632267153        5.0265991540      -19.6386056343
 H        -0.9071933677        5.3688059024      -19.9796205320
 H         1.0341820731       11.3651269242      -17.3034781109
 H         2.5482074492       11.3272224820      -16.3754092600
 H         1.1418418897       12.1430157414      -15.6432425684
 H         1.4431919953        9.2415340321      -13.3863331269
 H         2.2721166645       10.6900303838      -13.9286161351
 H         2.5425597505        8.8986123763      -14.4600099482
 Na       -0.0098717714        6.4094849223      -14.3444130625
 Na       -6.6505389189       -5.1373310368       -7.5050401719
