232

 C        -1.4750015261       10.9986574181      -15.3483663225
 C        -0.5184741954        9.7840927750      -15.1117471839
 O        -0.9201355691        8.7740420264      -14.5517820469
 C         0.9750325433        9.9864677164      -15.5107966825
 C         1.1882483136        8.6839249389      -16.5108793592
 O         1.5738302805        7.6396578408      -16.0060048228
 C         0.7725331844        8.7939509228      -17.9288124309
 C         0.1741618006        7.4397007980      -18.4737590119
 C        -0.6940101504        6.5871550967      -17.3833974362
 O        -1.4625778989        7.0938969843      -16.5983039456
 C        -0.4118388068        5.0545787532      -17.7160240217
 C         0.7532141153        4.4711994944      -16.9618552793
 O         1.0109942217        4.9445024366      -15.8394090464
 C         1.5067530069        3.2974308292      -17.5807288620
 C         2.6562269281        2.7057629029      -16.6972837008
 C         4.0323099129        3.0593462594      -17.2363717795
 O         4.3280733076        3.9588003642      -17.9760527860
 C         5.2685465307        2.2268599304      -16.6737918589
 C         5.4589028694        2.8126455658      -15.2537654537
 O         5.3536619671        2.0970744975      -14.2313963184
 C         5.9110844970        4.3342095438      -15.1266583921
 C         6.1688680375        4.7395470367      -13.6319052601
 C         5.6751751198        6.1115514490      -13.2295009809
 O         5.0275995831        6.8948762788      -13.9421567581
 C         5.9592059528        6.6049422704      -11.7199269272
 C         4.9993936803        5.8498832346      -10.8778521639
 O         5.1490262852        4.7222062935      -10.5093189016
 C         3.5789631493        6.3270478859      -11.0623862265
 C         2.5774091790        5.2490613081      -10.8823247304
 C         1.2591304703        5.6142771105      -11.5343892806
 O         1.1927840251        6.5636486204      -12.2745532215
 C        -0.0763796661        4.9530470091      -10.9431440229
 C        -0.5075863594        3.8504708540      -12.1036988808
 O        -0.5150039079        4.1474024869      -13.2704580511
 C        -1.2589775563        2.5382436435      -11.5641954507
 C        -1.4401881226        1.4071434351      -12.6913070389
 C        -2.3893354809        0.4045584394      -12.0667154799
 O        -3.5196699009        0.6107841848      -11.7429997516
 C        -1.7052560962       -0.9013630714      -11.4877660228
 C        -1.9432269745       -0.9072336295       -9.8936030051
 O        -1.1834950248       -0.3358871678       -9.1592539710
 C        -3.3261706122       -1.4129145567       -9.4891038778
 C        -3.5719594233       -1.4210790740       -7.9499298153
 C        -4.3826201955       -2.5801386600       -7.3248947610
 O        -5.3720334569       -3.0327229561       -7.9066069673
 C        -4.1770300789       -3.0801587240       -5.8229328260
 C        -3.8903797161       -4.6079410837       -5.9611516856
 O        -4.8243182587       -5.3862511994       -6.1316152707
 C        -2.5312825240       -5.1839993528       -5.9809483238
 C        -2.5387485510       -6.7093426975       -6.4064858361
 C        -2.7276147198       -7.7388230954       -5.2809136663
 O        -2.9077280170       -7.5224240371       -4.0811563024
 C        -2.7345724180       -9.3183729204       -5.7781643449
 C        -3.4728323420       -9.4003361175       -7.1177011236
 O        -2.9123525221       -8.9092058921       -8.0895873404
 C        -4.8455692132      -10.0231135056       -7.2965363860
 C        -5.4440159083       -9.7271292358       -8.6715811456
 C        -6.0921109626       -8.3808831093       -8.7206059039
 O        -5.8427105566       -7.5638078521       -7.8026036382
 C        -6.9594598353       -7.9811088177       -9.9439245092
 C        -7.6388416917       -6.5897361593       -9.9055144520
 O        -7.0095263376       -5.6047859467      -10.0127499062
 C        -9.1885297538       -6.5144295497       -9.7518074181
 C        -9.8188690947       -5.1218794149       -9.6420603261
 C        -9.3515656946       -4.3771442585       -8.3575591921
 O        -8.3952439098       -3.6601651802       -8.3748641551
 C       -10.3243219363       -4.3837614650       -7.0875839361
 C        -9.6894267505       -5.6058663203       -6.3469499683
 O        -8.4639999800       -5.6014812896       -6.2974535703
 C       -10.5393950494       -6.7592752743       -5.5428273205
 C        -9.5797029303       -7.6801161169       -4.7818499706
 C        -8.9933941440       -8.6792757067       -5.7389814167
 O        -8.7487262230       -8.4066611709       -6.8898291717
 C        -8.8982186485      -10.1866324045       -5.2724082925
 C       -10.4725631979      -10.7108700506       -5.2459542635
 O       -11.3703824751       -9.9812037189       -5.6660150924
 C       -10.7951050043      -12.1366498599       -4.7638605469
 C       -10.6260470599      -12.6204041160       -3.3067927863
 C       -11.4914439907      -11.5680702227       -2.5045410226
 O       -11.2105905326      -10.4349372242       -2.9129637761
 C       -12.6676703628      -11.7255625720       -1.5513563646
 C       -13.9219133720      -10.8353407835       -2.0109923004
 O       -14.5709391684      -10.4240562350       -1.0688771267
 C       -14.2530366103      -10.6950045610       -3.4403985613
 C       -13.2096167610      -13.1427770759       -1.5428017518
 C       -12.1442725914      -11.3540303188       -0.0751534462
 C        -8.2063683080      -11.0136982632       -6.2859270685
 C        -8.1472502519      -10.2432755968       -3.9225445834
 C       -10.2143333334       -3.0814014881       -6.2937489883
 C       -11.7578910978       -4.5719001732       -7.5067822565
 C        -6.0074255411       -8.1145022699      -11.1848329288
 C        -8.0832935071       -9.0471394554      -10.2249877847
 C        -1.2969983736       -9.8214237502       -6.0251947973
 C        -3.4301240834      -10.1477778096       -4.6726163294
 C        -3.1081368152       -2.1470160508       -5.2462592189
 C        -5.5646218670       -2.8092688618       -5.1134054681
 C        -2.3800157112       -2.0993655108      -12.2394730956
 C        -0.1989498326       -1.0013311022      -11.7065403305
 C         0.2712581501        4.3754226388       -9.5532333241
 C        -1.2501593492        5.8601383520      -10.9570108821
 C         7.5538588294        6.3892395765      -11.3460379640
 C         5.8200709802        8.1414792029      -11.5955319797
 C         5.0254413165        0.6789064671      -16.4609775171
 C         6.4753107863        2.3649993849      -17.6123410818
 C        -1.7018096071        4.1965026403      -17.2924040556
 C        -0.4046684947        4.8627969257      -19.2695258249
 C         1.2942331019       11.3330705835      -16.2068678357
 C         1.8241620081        9.8046281164      -14.1633513180
 H        -2.4230705246       10.8590941201      -14.8619522018
 H        -1.5837292263       11.1720129958      -16.4540938695
 H        -1.1793731878       11.9893563402      -14.9290092138
 H         1.5752863412        9.1272162977      -18.5217759696
 H         0.0408181671        9.6878349273      -18.0622072621
 H         0.9412005645        6.7920983774      -18.8404175985
 H        -0.6104821025        7.6375840912      -19.1601514216
 H         1.8632837372        3.4537453507      -18.5932218766
 H         0.6228301745        2.6259746341      -17.6346883174
 H         2.5540335421        1.5977071980      -16.6721125003
 H         2.5751623318        3.1336303676      -15.6683416042
 H         5.1455019573        4.9578976852      -15.5733268614
 H         6.8248391845        4.4749877306      -15.6275120056
 H         7.2493869078        4.6741314761      -13.3320227827
 H         5.7352118373        3.9699730076      -12.9018460396
 H         3.4170103016        6.5908638077      -12.1441452690
 H         3.3151611282        7.1860253441      -10.4242729034
 H         2.5579979046        5.0636100773       -9.8524059245
 H         2.9114144575        4.2326195778      -11.3198847812
 H        -2.2129023000        2.7907757107      -11.0787278426
 H        -0.7390993822        2.1467626094      -10.6376321108
 H        -0.4311079868        0.9379516591      -12.9275987156
 H        -1.9144865008        1.9358690992      -13.4882589056
 H        -3.3348656970       -2.5303073305       -9.7539634341
 H        -4.0289516197       -0.9304697401      -10.0547612074
 H        -4.1185135370       -0.6387623498       -7.6081143731
 H        -2.5275927225       -1.3720660867       -7.5192041564
 H        -2.1377631865       -5.0436268483       -4.9591241079
 H        -1.7650572267       -4.5801217720       -6.5036941018
 H        -1.8517094307       -6.8761799645       -7.1821757763
 H        -3.4578376987       -6.8753960377       -7.0536177709
 H        -5.4205271827       -9.5537188502       -6.4074082720
 H        -4.7169778319      -11.1779326064       -7.0561710569
 H        -6.0436757803      -10.5430879730       -8.9202717291
 H        -4.6269802097       -9.8558718718       -9.3626655392
 H        -9.5503484364       -7.0243125788       -8.9472539903
 H        -9.6807271723       -6.9847818847      -10.6027933515
 H       -10.8591560132       -5.2529138626       -9.6954954387
 H        -9.5196593543       -4.6204625246      -10.5458325544
 H       -11.0312453819       -7.3613887596       -6.2881710479
 H       -11.3898370540       -6.4246058068       -4.9581595180
 H       -10.1312712892       -8.2329740657       -4.0244298655
 H        -8.8484490219       -7.0135745513       -4.3021971966
 H       -10.2175462431      -12.8472063331       -5.3976194676
 H       -11.8459479163      -12.3097570750       -4.9468364639
 H        -9.5581693970      -12.7136320652       -3.0340423745
 H       -11.0607362861      -13.6206209144       -3.2154786757
 H       -13.4453939342      -10.1514815622       -3.9598304242
 H       -15.1485748638      -10.1674857666       -3.6080776021
 H       -14.3616920487      -11.7406325747       -3.7944865942
 H       -13.5976565449      -13.4027776834       -2.5300852957
 H       -14.0114251256      -13.3225559209       -0.7569658088
 H       -12.3506260266      -13.8649765074       -1.2550450250
 H       -12.9429540102      -10.9740542756        0.6392582663
 H       -11.3888036466      -10.5130053182       -0.1334302901
 H       -11.5846712741      -12.2006275309        0.1816663377
 H        -8.6215534695      -11.9962709125       -6.2569289070
 H        -7.0768417736      -11.1033155930       -6.0904605642
 H        -8.3733219944      -10.5447620241       -7.2307249783
 H        -8.7637099211       -9.6861934840       -3.1211946224
 H        -7.2048914471       -9.7580678834       -4.1610369511
 H        -7.9147612301      -11.2529756262       -3.5673939727
 H        -9.2836660632       -2.5240668413       -6.4612452544
 H       -10.4505298562       -3.1190002597       -5.2298044040
 H       -10.9335427976       -2.3063255408       -6.6895759776
 H       -12.2008615074       -3.9133407804       -8.3491290099
 H       -12.5019856696       -4.4117408545       -6.7714257740
 H       -11.7588002422       -5.6148203144       -7.9506448133
 H        -5.5890405000       -9.0813891065      -11.1661850732
 H        -5.2197701807       -7.3469880149      -11.1675349764
 H        -6.5626984811       -7.9020881250      -12.0927072294
 H        -7.6482149287      -10.0927582289      -10.0114939714
 H        -8.5666976865       -9.0429770689      -11.1195275257
 H        -8.8988900206       -8.9722028539       -9.4918500438
 H        -0.6327407979       -9.5777484206       -5.1792643270
 H        -0.8003267280       -9.3457764769       -6.9011783740
 H        -1.2873202986      -10.9093724337       -6.0232629320
 H        -2.8313426570      -10.2211706223       -3.7498043135
 H        -3.6593051794      -11.1862105135       -4.9128643842
 H        -4.3795783876       -9.6980003323       -4.4685438817
 H        -2.8977821758       -2.3409271886       -4.1860857821
 H        -3.3329225057       -1.0787678767       -5.3664930672
 H        -2.1651423644       -2.3914532479       -5.7282814642
 H        -6.5344619123       -3.1699365145       -5.5047726344
 H        -5.7445989324       -1.7321780329       -4.8986450229
 H        -5.5413585348       -3.2611792734       -4.0985079618
 H        -2.2284021792       -2.0378429224      -13.2832666041
 H        -3.4843556562       -2.1753522383      -12.1475493624
 H        -1.9406512923       -3.0163051309      -11.9297981072
 H         0.4167356144       -0.2164021655      -11.1956029862
 H         0.1374146134       -0.8740024139      -12.7689884290
 H         0.0929793219       -2.0008171173      -11.3799535426
 H         0.9984280714        3.6378559612       -9.7108997709
 H        -0.5712141884        4.0223220390       -8.9272462527
 H         0.7988167477        5.0790629758       -8.9531671790
 H        -2.1940837233        5.3168181655      -11.0957029841
 H        -1.1707517400        6.6224839611      -11.7575987388
 H        -1.3641619721        6.3786406280       -9.9877740893
 H         7.8232652551        5.2984584987      -11.3598351015
 H         7.9443990107        6.8561390918      -10.4448752598
 H         8.1513862720        6.8588137260      -12.0846382877
 H         6.5881134741        8.6577165667      -12.0109646629
 H         5.4727649532        8.5583413313      -10.6689570617
 H         4.9152122524        8.3771801675      -12.2667290363
 H         5.9321564413        0.0562813152      -16.2974151460
 H         4.4669910613        0.1200532917      -17.1461088997
 H         4.4993051748        0.5384912693      -15.4949754785
 H         6.7958130469        3.3113398527      -17.7943291752
 H         6.2555617960        1.9739108834      -18.6155480973
 H         7.2673759431        1.8487232786      -17.1048470841
 H        -2.5333897727        4.5867161941      -17.9262225190
 H        -1.9872324032        4.3231400444      -16.2697347651
 H        -1.6766750667        3.0833730354      -17.4183995663
 H        -0.6050565620        3.8369884738      -19.6882831841
 H         0.5615209183        5.1089026837      -19.7714178595
 H        -1.0537412764        5.6350437185      -19.6464470336
 H         0.6833316018       11.3265333823      -17.1286700639
 H         2.3260686661       11.3240289480      -16.4940622583
 H         1.0495253001       12.1638413646      -15.5503145125
 H         1.2505532611        9.2359056231      -13.3803879127
 H         2.0763591449       10.7490104580      -13.7564479982
 H         2.6672266866        9.0991542296      -14.2422578077
 Na       -0.0648126870        6.6522302318      -14.5119558501
 Na       -6.5825187237       -4.9943585094       -7.7163389010
