232

 C        -1.5301456613       10.8329991612      -15.4123897250
 C        -0.5782899299        9.8319629101      -14.9896002421
 O        -0.9045066255        8.7969062349      -14.5162401008
 C         0.9365878553        9.9196427321      -15.4017177422
 C         1.1207489722        8.7059331048      -16.3496052290
 O         1.6248661313        7.6752355428      -15.9443121644
 C         0.4690197970        8.8116233224      -17.7121266380
 C         0.1491361592        7.4823714553      -18.4043275511
 C        -0.6750911582        6.4936744817      -17.5209444138
 O        -1.2949817412        6.9513553405      -16.6000291719
 C        -0.6080594517        5.0342927678      -17.7761363662
 C         0.6776552000        4.4746963888      -16.9193498332
 O         0.9356839648        4.8933952710      -15.8039102696
 C         1.5132830309        3.3025447895      -17.5183704478
 C         2.7650499968        2.7567653941      -16.7934216414
 C         4.1533870936        3.1310354692      -17.3410081502
 O         4.2758238838        4.0625733101      -18.0639510612
 C         5.3604457048        2.2554088247      -16.7334509551
 C         5.6041363080        2.7646651710      -15.2495585529
 O         5.3575667353        2.0584065701      -14.3282301479
 C         6.0104486081        4.2977639052      -15.0683650422
 C         6.3936961418        4.7257120773      -13.6555752891
 C         5.9217274220        6.1593654282      -13.2693303726
 O         5.2065186976        6.7996024630      -13.9685703937
 C         6.1066287536        6.6410502845      -11.7979477769
 C         5.0235594568        5.7057945839      -11.0393944099
 O         5.2442277618        4.6254676839      -10.4928475429
 C         3.5168815950        6.2813479317      -11.1647734470
 C         2.5215917223        5.0857490037      -10.9203355906
 C         1.2054218554        5.6213389622      -11.4738497771
 O         1.2442855274        6.4349484526      -12.3481793792
 C        -0.1375464866        4.9404538319      -10.9661159572
 C        -0.6269242335        3.9143637082      -12.0352512984
 O        -0.4876900032        4.1440753046      -13.2215406565
 C        -1.2513974146        2.6322355864      -11.5584107803
 C        -1.5004489364        1.5784251512      -12.6182586008
 C        -2.3469403052        0.3746414751      -11.9798830685
 O        -3.5489737917        0.5635804735      -11.9120585568
 C        -1.7611229455       -1.0344355489      -11.4412863304
 C        -2.1330181123       -0.9233201961       -9.8908935241
 O        -1.2902298726       -0.4413933524       -9.2221022486
 C        -3.4833503385       -1.3231008441       -9.3831275311
 C        -3.4820879033       -1.4339656371       -7.8837151234
 C        -4.4043842947       -2.4982530084       -7.4148389936
 O        -5.2935706156       -2.9646246888       -8.0848927426
 C        -4.0827429213       -3.0024867420       -5.9484704974
 C        -3.9441048330       -4.5851507382       -5.9286033933
 O        -4.9556452578       -5.2340017335       -5.9890942542
 C        -2.5050588470       -5.1689479309       -5.9255741713
 C        -2.5567192321       -6.6550847412       -6.3311541767
 C        -2.8354632393       -7.6865377060       -5.2950084053
 O        -3.0647384656       -7.4104495131       -4.1415785178
 C        -2.7248703878       -9.2569954511       -5.7236787154
 C        -3.4442636017       -9.3404184419       -7.1339100809
 O        -2.9332811637       -8.8390517946       -8.1303405852
 C        -4.8773039072       -9.9935079490       -7.1582913010
 C        -5.4085695152       -9.6627850682       -8.5363095315
 C        -6.1717292329       -8.2945043301       -8.6625656659
 O        -5.8652358643       -7.3712469397       -7.9317129347
 C        -6.9954725861       -8.0375615401       -9.9594278222
 C        -7.6734695846       -6.5271089354       -9.9383051467
 O        -6.9336984661       -5.5460940016       -9.9580678539
 C        -9.1300612294       -6.5455551188       -9.7655758954
 C        -9.7552689737       -5.1151855515       -9.7149074509
 C        -9.4507521200       -4.2550146904       -8.4964940143
 O        -8.3788554221       -3.6815768017       -8.4196612993
 C       -10.3901704019       -4.3826201433       -7.2226531908
 C        -9.6852343976       -5.4967076231       -6.3548903532
 O        -8.4818547476       -5.6248267643       -6.2004263832
 C       -10.5672853854       -6.4723436296       -5.6217910048
 C        -9.7352183140       -7.5596104637       -4.8761233640
 C        -9.1906540975       -8.6378525265       -5.7686015326
 O        -8.8867562669       -8.3276869405       -6.9135761647
 C        -8.9315940508      -10.1354625044       -5.2473325853
 C       -10.3765980992      -10.6999272804       -5.0424692309
 O       -11.2333773011      -10.0331951338       -5.6265708041
 C       -10.6931138053      -12.2454412353       -4.8091861736
 C       -10.7660004715      -12.6709631499       -3.2960474053
 C       -11.5573152268      -11.5725003133       -2.5350910934
 O       -11.1771095981      -10.3835682809       -2.6865676668
 C       -12.6133619739      -11.9571869153       -1.5349077682
 C       -13.8550211289      -10.8377238283       -1.8610169185
 O       -14.4916025639      -10.3091002185       -0.9605115211
 C       -14.2575041404      -10.5215527544       -3.2892899160
 C       -13.2519388321      -13.3598220635       -1.5074518220
 C       -12.2318386591      -11.4301982260       -0.1606597371
 C        -8.0742706926      -10.9884812411       -6.3768232179
 C        -8.1547079367      -10.3139081415       -3.8907070976
 C       -10.1921709853       -3.1476054471       -6.3484143381
 C       -11.8428823249       -4.6552193015       -7.6708332990
 C        -6.0000975527       -8.1002521956      -11.2010174964
 C        -8.0714686390       -9.1840509733      -10.2037779061
 C        -1.2276653702       -9.7397066939       -6.0452129856
 C        -3.3064515054      -10.2131924345       -4.6569166602
 C        -2.9385673216       -2.2471384342       -5.2662997931
 C        -5.3916215724       -2.8024328383       -5.1665735122
 C        -2.4627554826       -2.2539509371      -12.1217203324
 C        -0.1903412400       -0.9942314429      -11.6276129517
 C         0.0451902235        4.2416562184       -9.5999734284
 C        -1.3447847425        5.9617845814      -10.8648637547
 C         7.5840178408        6.3263308563      -11.3052847203
 C         5.8449279427        8.1627242396      -11.5167579655
 C         5.1618344396        0.7356707414      -16.6707039137
 C         6.5106625286        2.5059830522      -17.7263656516
 C        -1.7197688082        4.0700635149      -17.1597544771
 C        -0.4585781647        4.7112127947      -19.2705712022
 C         1.2194343679       11.2532784681      -16.1751617090
 C         1.8835031668        9.7540938267      -14.1905328980
 H        -2.4565754961       10.7960080146      -14.8744612507
 H        -1.6079645400       10.7805837182      -16.4995982267
 H        -1.1825263172       11.8614314314      -15.2190621630
 H         1.2857264454        9.2595563712      -18.3809086729
 H        -0.2840492638        9.6362201223      -17.8016015576
 H         1.1014088241        6.9586519757      -18.5410884092
 H        -0.4501777649        7.6127171433      -19.3319207944
 H         1.9152239244        3.7183222710      -18.4419723020
 H         0.7797859229        2.5253772626      -17.7665833409
 H         2.6098284542        1.6554350117      -16.6542988376
 H         2.7854840092        3.2680078307      -15.8089432404
 H         5.0621739085        4.8519422897      -15.3371294301
 H         6.8298709728        4.6246564923      -15.7281202606
 H         7.4752994397        4.7230270257      -13.4990108846
 H         6.1213626057        3.9457263965      -12.8784952492
 H         3.2275149344        6.7221819340      -12.1137468406
 H         3.3617118660        6.9881991896      -10.2707243364
 H         2.6215232778        4.7595034187       -9.9000670708
 H         2.8288471069        4.1639901251      -11.4929265094
 H        -2.1711118322        2.9310924818      -11.0456693839
 H        -0.7541986893        2.1689727133      -10.7671050536
 H        -0.5679361265        1.2843449071      -12.9703973845
 H        -2.2016158765        1.9271556394      -13.3780667867
 H        -3.8578912646       -2.2625138093       -9.8101905007
 H        -4.2077780738       -0.5185819499       -9.7143437311
 H        -3.8717876587       -0.5630385557       -7.4043629927
 H        -2.4968473222       -1.5794978859       -7.5350917507
 H        -1.8719773263       -4.9087731586       -5.0238189497
 H        -1.9029855537       -4.6863308121       -6.6369952425
 H        -1.5473166483       -6.8396631698       -6.7784208657
 H        -3.0527441778       -6.7590531900       -7.2941634586
 H        -5.3470740873       -9.4482878811       -6.3621344714
 H        -4.7854844578      -11.0991004399       -6.8675501385
 H        -6.0687648955      -10.5462265313       -8.8587482221
 H        -4.5451846162       -9.8185798308       -9.1366421952
 H        -9.4988912890       -7.1771805399       -8.8884791926
 H        -9.5610430821       -6.9803699579      -10.6324123532
 H       -10.8157480965       -5.2491257097       -9.7432510168
 H        -9.5212853255       -4.7539467496      -10.7219676267
 H       -11.2465036942       -6.9548017626       -6.3290044755
 H       -11.2994011099       -5.9978569827       -4.9464811496
 H       -10.3464844985       -7.9560530194       -4.0857914135
 H        -8.8790158157       -7.0783239015       -4.4077865234
 H       -10.0301932203      -12.8669447007       -5.3289007842
 H       -11.6385855420      -12.3791503812       -5.2219517118
 H        -9.7398927782      -12.7976253504       -3.0241650297
 H       -11.2501413433      -13.6334549537       -3.0537219908
 H       -13.5533447615       -9.7401259044       -3.6025161207
 H       -15.2337113250       -9.9596061443       -3.2600575940
 H       -14.3483229210      -11.3302665194       -3.9851284817
 H       -13.4823501584      -13.7471762459       -2.4827078840
 H       -14.1430127020      -13.3052222349       -0.8699174600
 H       -12.5943570117      -14.0888438655       -0.9391184335
 H       -13.0864961840      -11.0444557368        0.3384195965
 H       -11.6733644836      -10.5381617195       -0.3484421430
 H       -11.6108017400      -12.1598705276        0.3624737573
 H        -8.3261645171      -12.0655858631       -6.3981866144
 H        -6.9915430594      -10.9025247564       -6.1419992320
 H        -8.2088159302      -10.4666523646       -7.2919799550
 H        -8.7796861041       -9.9581971508       -3.0583472143
 H        -7.1798697216       -9.8634363035       -3.9778498886
 H        -7.9311891857      -11.4303913412       -3.7637258103
 H        -9.1393858793       -2.7520814981       -6.2819162089
 H       -10.6801654179       -3.1520489965       -5.3352604384
 H       -10.6379023018       -2.2929997716       -6.7978750448
 H       -12.1443174053       -4.2047659369       -8.6628768244
 H       -12.5868669660       -4.0171981837       -7.0206070928
 H       -12.1684731790       -5.6846451597       -7.7255838757
 H        -5.4953171263       -9.0768181895      -11.2494274847
 H        -5.2639421529       -7.3102722953      -11.0855924042
 H        -6.5090457138       -7.8746036273      -12.0940393593
 H        -7.6335931662      -10.1882288515      -10.2734004340
 H        -8.7125131019       -9.0150432305      -11.1192295489
 H        -8.8146669946       -9.2839716358       -9.4078693610
 H        -0.4812560583       -9.3780931485       -5.3373251334
 H        -0.9156764671       -9.2200271295       -6.9588357159
 H        -1.1539847197      -10.7881052517       -6.0616750905
 H        -2.7179924493      -10.1142343484       -3.7757979595
 H        -3.3386211772      -11.2788140551       -4.8773992184
 H        -4.3610954308       -9.9583712710       -4.4342220911
 H        -2.8858054345       -2.5335621976       -4.1990636818
 H        -3.1527619199       -1.1517371620       -5.3105969291
 H        -1.9288411662       -2.4091007269       -5.6493078975
 H        -6.3365218809       -3.2789101672       -5.5913761353
 H        -5.7483641025       -1.7914282011       -5.0046372372
 H        -5.2945684015       -3.2607167952       -4.1400813621
 H        -2.3025881465       -2.2270157335      -13.2195637440
 H        -3.5560591475       -2.4123735875      -12.0184094051
 H        -1.9426265822       -3.1470590876      -11.8239279333
 H         0.0968568119        0.0270884566      -11.5756705585
 H         0.2241476962       -1.2348033099      -12.6041844063
 H         0.3560286224       -1.5464354124      -10.8599455083
 H         0.8028215636        3.5402509920       -9.5348911436
 H        -0.9296428388        3.8379339175       -9.2717598410
 H         0.3422227095        4.9847449921       -8.8223822711
 H        -2.2861630022        5.4445130916      -10.7453077603
 H        -1.4212024580        6.6619125823      -11.7229560191
 H        -1.1909620914        6.6045755029       -9.9071522713
 H         7.5685741373        5.2402116351      -11.0764830588
 H         7.9030621541        6.8722372957      -10.4173541268
 H         8.3828542597        6.5477487558      -11.9635605234
 H         6.6822453738        8.8911836742      -11.5346917036
 H         5.1747170131        8.3000458701      -10.7021958869
 H         5.2011439141        8.5221851903      -12.2832727531
 H         6.1276655978        0.2145009666      -16.6133597906
 H         4.6394667419        0.2559205509      -17.4904735146
 H         4.6685232657        0.3328405722      -15.7526591846
 H         6.6183512180        3.5975759754      -17.8832731869
 H         6.3481448779        2.1627911438      -18.6731610179
 H         7.4663989144        2.1345180490      -17.2900341409
 H        -2.6059773471        4.1518946779      -17.6404089412
 H        -1.8084035112        4.1443647884      -16.0701324457
 H        -1.4353610985        2.9931609673      -17.2990917819
 H        -0.3684227242        3.6994991018      -19.4964865041
 H         0.4729371858        5.1514309818      -19.7397923877
 H        -1.2315167704        5.2383988355      -19.8251180070
 H         0.4124700088       11.3303114416      -16.8972836568
 H         2.1536210412       11.1307969032      -16.7162256048
 H         1.1998586614       12.0911264299      -15.4901782077
 H         1.5924876569        8.9532452122      -13.4851330914
 H         1.8125386308       10.7007798912      -13.7074246259
 H         2.9396049120        9.5211861986      -14.4075617234
 Na       -0.0138865806        6.6540853884      -14.5528433980
 Na       -6.5705563986       -5.0617609680       -7.7934730469
