232

 C        -1.7431372604       10.7182034850      -15.1040302622
 C        -0.6527974874        9.7335727013      -14.7144266740
 O        -0.8239523913        8.8477833136      -13.9440929093
 C         0.7785739715        9.8591235586      -15.3031984563
 C         0.8941795728        8.6278734961      -16.3728877139
 O         1.6375731977        7.7190231295      -16.0596479933
 C         0.0623051501        8.6582687230      -17.6302337046
 C         0.2034868651        7.2696204708      -18.3475214427
 C        -0.6118482136        6.2091614025      -17.4048093651
 O        -1.1594480287        6.5571579973      -16.4066543054
 C        -0.6014698565        4.5791102384      -17.6811976455
 C         0.7182722567        4.1366231271      -16.9073684027
 O         0.9610108556        4.4943699442      -15.7321685443
 C         1.7597182896        3.3331631598      -17.6705898661
 C         2.9983486299        2.9602551638      -16.7130961949
 C         4.2494987035        3.4161022655      -17.4643934579
 O         4.3439717972        4.1837185942      -18.3705414209
 C         5.5574484802        2.5888911329      -17.0117770462
 C         5.8074916716        2.9063788271      -15.4652326003
 O         5.5918005972        2.1790573245      -14.5158200435
 C         6.3984058482        4.3756600144      -15.2407771558
 C         6.8750580388        4.6332140753      -13.7942942346
 C         6.3611144884        5.9560438937      -13.3332089126
 O         5.8000737696        6.7304847544      -14.0817394294
 C         6.3265393349        6.3131286614      -11.6964772306
 C         5.0626840900        5.4520624333      -11.1378504479
 O         5.2176845444        4.3807924703      -10.6042777728
 C         3.5574311042        5.9483803233      -11.2464482638
 C         2.4889724360        4.9358322523      -10.9016975051
 C         1.1289241592        5.4779707889      -11.4214339674
 O         1.1997655099        6.2710916285      -12.3151774784
 C        -0.3315873717        4.8599106835      -10.9170246538
 C        -0.8599520949        3.8102733021      -11.9912546352
 O        -0.9259022707        4.2447623774      -13.1199977874
 C        -1.4001816368        2.4223712730      -11.5683485368
 C        -1.7650063467        1.5252714827      -12.8043887000
 C        -2.5197880592        0.3052752609      -12.2960264804
 O        -3.7172770730        0.3251540295      -12.4193991077
 C        -1.9035737187       -0.8739356406      -11.4764516037
 C        -2.1177601426       -0.7839806396       -9.8499439276
 O        -1.1781097156       -0.4836054102       -9.2075008356
 C        -3.5463223871       -0.9068915118       -9.2558731988
 C        -3.6728994271       -1.2996039096       -7.7652802468
 C        -4.3419639941       -2.5759833446       -7.3785471357
 O        -5.0234073327       -3.2639218883       -8.1179813117
 C        -4.0788218273       -3.0209797127       -5.8247496187
 C        -3.9900782216       -4.6001484287       -5.7519959045
 O        -4.9040662998       -5.3048266152       -6.0363787646
 C        -2.5933891824       -5.0638981718       -5.6332506583
 C        -2.3673504940       -6.4446095255       -6.2102355928
 C        -2.9208195522       -7.5315677632       -5.3482954786
 O        -3.5418362050       -7.3095474346       -4.3288626032
 C        -2.5736566978       -9.0349881713       -5.8032295451
 C        -3.3526857753       -9.2392658168       -7.1243811230
 O        -2.8770485806       -8.9774448914       -8.2186070357
 C        -4.8137841205       -9.5554235316       -6.9366935011
 C        -5.5635330999       -9.5829539503       -8.2652659778
 C        -6.1297439289       -8.2635818539       -8.7444166071
 O        -5.8159262566       -7.2652280394       -8.0968633224
 C        -6.9878852514       -8.0772572701      -10.0409598072
 C        -7.6798207001       -6.6135286555       -9.9990996255
 O        -7.0871945889       -5.6006322283      -10.1056163628
 C        -9.1964771219       -6.5250290986       -9.8663177212
 C        -9.6278274197       -5.1191714819       -9.9428424603
 C        -9.3185375674       -4.3251799829       -8.7028875123
 O        -8.4446222103       -3.4845691195       -8.6014582287
 C       -10.3228473983       -4.3872132654       -7.4679336894
 C        -9.6253072882       -5.5355942619       -6.4623255855
 O        -8.4063198070       -5.6471633362       -6.3266731980
 C       -10.6168689562       -6.3983382740       -5.4840931893
 C        -9.9512739958       -7.6174662606       -4.8291064913
 C        -9.4277602637       -8.5839440535       -5.8506245619
 O        -9.2605916338       -8.3084208751       -7.0330108162
 C        -9.2076017781      -10.0305927488       -5.2848898220
 C       -10.5229596027      -10.8135584397       -5.1814227296
 O       -11.6067544342      -10.2623248008       -5.3470164912
 C       -10.3477604020      -12.2702904241       -4.6575882545
 C       -11.1049397731      -12.6470543245       -3.2793716278
 C       -11.4960943624      -11.5246630641       -2.3458575271
 O       -10.9355144073      -10.4276276794       -2.4889904884
 C       -12.7162139197      -11.8839508116       -1.3497127146
 C       -13.8317953538      -10.7691312384       -1.5883101273
 O       -14.3551353128      -10.2772304455       -0.5998069806
 C       -14.1605692554      -10.3605361147       -3.0274070921
 C       -13.4097067910      -13.1693420547       -1.7659888156
 C       -12.0880069784      -11.9224065569        0.0360442330
 C        -8.1655835774      -10.7886609044       -6.2283719418
 C        -8.4370457652       -9.9396402196       -3.8931508140
 C       -10.2705339641       -3.0015646391       -6.7318199539
 C       -11.7673587525       -4.7839328455       -7.8457916191
 C        -5.9980060936       -8.0596024299      -11.2714855353
 C        -7.9554515681       -9.2732388537      -10.2341432089
 C        -1.0673657145       -9.1545677231       -6.0104186937
 C        -3.0114398201       -9.9203549476       -4.6626979813
 C        -2.8004540944       -2.2735716933       -5.2120660416
 C        -5.2726057651       -2.4320696036       -5.1448470615
 C        -2.5833521975       -2.1344297748      -12.0454676533
 C        -0.3314614917       -0.8995840043      -11.6909175208
 C        -0.1934751443        4.4791894409       -9.4339456812
 C        -1.2141517514        6.2005057475      -10.9356371852
 C         7.6151651537        6.0199957287      -11.1552435653
 C         6.0950022660        7.8134572959      -11.7496865835
 C         5.4426265860        1.0820934051      -17.2250583766
 C         6.7448491795        3.2140256058      -17.8105212641
 C        -1.8766715319        4.0981623845      -16.9946486258
 C        -0.6221204123        4.2502681368      -19.2558020022
 C         0.9808112832       11.1918646045      -16.0223666113
 C         1.6875205408        9.6945384473      -14.0627766362
 H        -2.6745067315       10.5752757031      -14.5849146217
 H        -1.8443199543       10.5603522759      -16.2027869642
 H        -1.4266583456       11.7893316218      -15.0975611737
 H         0.4273984487        9.4496957046      -18.2152889555
 H        -0.9761919713        9.0048081468      -17.3661031685
 H         1.2077794405        6.8970032873      -18.3091073019
 H        -0.2296321821        7.1984600069      -19.3282424559
 H         2.0366770155        4.0692417890      -18.4408183467
 H         1.2912269596        2.4443285608      -18.1385492650
 H         2.8864635279        1.9444691952      -16.3172280552
 H         2.9466560073        3.6557313729      -15.8796714454
 H         5.7150687165        5.1419339145      -15.5680216329
 H         7.2613934821        4.4569822251      -15.8052588452
 H         7.9506396879        4.6476311946      -13.6392682507
 H         6.6701013936        3.8531467519      -13.0329671244
 H         3.3076099933        6.3742622293      -12.2136305900
 H         3.4453170949        6.7010085788      -10.4644845266
 H         2.6588537287        4.6074175657       -9.9400636074
 H         2.7759456005        3.9982113320      -11.4953901001
 H        -2.3467724332        2.4315205576      -10.9235260566
 H        -0.6093526226        1.8888184897      -10.9405030309
 H        -0.9162721455        1.2506862783      -13.5397718042
 H        -2.5970252733        2.0190196664      -13.3804382665
 H        -4.0933002995       -1.6063307100       -9.9382633913
 H        -4.0167951569        0.0129273251       -9.3322215873
 H        -4.1884974415       -0.5106373170       -7.3651783348
 H        -2.6198200412       -1.2107042923       -7.2604371534
 H        -2.2049940324       -5.0743325759       -4.5992019550
 H        -1.9410837116       -4.2949982600       -6.0785034276
 H        -1.3314061250       -6.6130964903       -6.4025372169
 H        -2.7047059507       -6.5132095148       -7.2724756160
 H        -5.2176384552       -8.6465146197       -6.4220838338
 H        -4.7883165799      -10.5795191368       -6.3080008585
 H        -6.3629763500      -10.2489092262       -8.1197933140
 H        -4.9782831100      -10.0219534739       -9.0506553998
 H        -9.5681928897       -6.9655939743       -8.9891227318
 H        -9.6806266934       -7.0584760288      -10.6950958902
 H       -10.6565761656       -5.1336356066      -10.1852826927
 H        -9.1544913226       -4.6481641371      -10.8291145937
 H       -11.3712214016       -6.8799780214       -6.0965057463
 H       -11.1978639125       -5.7724817856       -4.8030454032
 H       -10.6970717308       -8.1375024189       -4.1984828906
 H        -9.1201053537       -7.4382326126       -4.0835124361
 H        -9.2674392956      -12.6900359600       -4.6616490490
 H       -10.8691861740      -13.0208230933       -5.3122037896
 H       -10.5842934497      -13.4652466235       -2.7474017488
 H       -12.0287256458      -13.2050751363       -3.5230842867
 H       -13.6426726221       -9.4391989183       -3.3290222924
 H       -15.2113257205      -10.1757191214       -3.1769578037
 H       -13.9055465442      -11.1667798757       -3.7036326820
 H       -13.9643680700      -12.9943258871       -2.6271719712
 H       -14.0513156806      -13.4418922843       -0.9066799871
 H       -12.8106004712      -14.1148985203       -2.0195101630
 H       -12.6930468655      -12.5241960600        0.7690641784
 H       -12.2454583699      -10.8843034238        0.4259183362
 H       -11.0780894810      -12.2825518925       -0.0508929319
 H        -7.9111966577      -11.7268622610       -5.7761964393
 H        -7.2067442593      -10.1758844088       -6.3260738334
 H        -8.5124335498      -10.8154632003       -7.2137082452
 H        -9.0886281112       -9.4483278321       -3.1523181517
 H        -7.5944499243       -9.3314903391       -4.0537062295
 H        -8.0037209742      -10.8820934964       -3.5969366090
 H        -9.3042098016       -2.6767405484       -6.3437721220
 H       -10.9008403193       -2.9373694735       -5.8524909932
 H       -10.6465358934       -2.2116571618       -7.3657365960
 H       -12.3429122449       -3.8571528911       -8.0861603366
 H       -12.2875247163       -5.4221379427       -7.1119035430
 H       -11.8521278686       -5.4285253234       -8.6816535455
 H        -5.4282638375       -8.9784479668      -11.3835435030
 H        -5.3498174623       -7.1539843244      -11.3880300795
 H        -6.7178364411       -8.1307649139      -12.0906871894
 H        -7.3648704355      -10.2363265649      -10.2826512595
 H        -8.3839662791       -9.2298762388      -11.2132770353
 H        -8.6613402899       -9.4744483130       -9.4579451645
 H        -0.5245366558       -8.7653076045       -5.0926289983
 H        -0.6585545141       -8.4636547170       -6.8221744181
 H        -0.8610695072      -10.1917971729       -6.2132252209
 H        -2.4712799661       -9.7267887888       -3.7307995202
 H        -2.9357776364      -10.9729379594       -4.9370699338
 H        -4.0681702770       -9.8341119769       -4.4643036156
 H        -2.4246771614       -2.6766679147       -4.2819614719
 H        -3.0764675576       -1.2373244970       -5.0987848310
 H        -1.9600227551       -2.2021065241       -5.8590665742
 H        -6.2457326630       -2.6404781259       -5.5685148771
 H        -5.3264213305       -1.4136811204       -5.3682913831
 H        -5.3019745963       -2.5248932993       -4.0845591795
 H        -2.0532743509       -2.4711545820      -12.9035597516
 H        -3.6584931000       -1.9714193413      -12.3145050146
 H        -2.5635729438       -2.9415830686      -11.3698067882
 H         0.1408046047        0.0528732015      -11.4125214787
 H         0.0154975711       -1.0377882801      -12.7411667361
 H         0.1787159345       -1.6326661266      -11.0584481551
 H         0.4165832201        3.6544706208       -9.3097876813
 H        -1.1577091963        4.2432399110       -8.8727303517
 H         0.3326041227        5.2661423879       -8.8837633957
 H        -2.0957897479        6.0046854771      -10.4235242881
 H        -1.4979166546        6.5808309333      -11.8925654196
 H        -0.6303037450        7.0363945345      -10.5302174587
 H         7.8861480151        4.9254492335      -11.2628306403
 H         7.6962200834        6.2651380550      -10.0865693258
 H         8.3235588341        6.6431541303      -11.5989800632
 H         6.9925043700        8.2407017128      -12.1770488428
 H         5.9721451407        8.3119087169      -10.7819565230
 H         5.3034518958        8.3000438959      -12.3890747668
 H         6.2924480335        0.4852252320      -16.8962528224
 H         5.2280692298        0.8030377190      -18.1890932726
 H         4.6186707807        0.6312399410      -16.6587842926
 H         6.6889552435        4.2547070355      -18.0089103878
 H         6.7537157322        2.7468410728      -18.7585241960
 H         7.7422346447        2.9142110199      -17.3954788652
 H        -2.6961609072        4.5336726378      -17.4666736296
 H        -1.8559932636        4.0702096886      -15.9067169652
 H        -2.0806019368        2.9984356564      -17.3119179587
 H        -0.6386159804        3.1627668530      -19.3718603425
 H         0.2036181877        4.6269070133      -19.9328841054
 H        -1.5382663474        4.6148805095      -19.7022828866
 H         0.2820574992       11.2701176531      -16.8727712115
 H         2.0119538736       11.1468096028      -16.2917598454
 H         0.7152689622       11.9997254292      -15.3485034862
 H         1.9140038887        8.5570784530      -13.9118306010
 H         1.3744880168       10.0994632278      -13.1176859561
 H         2.6099319571       10.2788242986      -14.2720954970
 Na       -0.0066010980        6.3145261417      -14.4604900834
 Na       -6.6192175377       -4.7991575085       -7.5839992093
