232

 C        -1.8611754729       10.5418690469      -14.5897076722
 C        -0.7284144133        9.5085444112      -14.5013611539
 O        -0.9522623527        8.4329199029      -13.8791586991
 C         0.5820537125        9.6930724982      -15.3307661771
 C         0.7973531066        8.4704563055      -16.2816445326
 O         1.4485373875        7.5215066936      -15.8895410779
 C         0.2545644012        8.4360150328      -17.7877991976
 C         0.0356210892        7.0572701162      -18.2525828059
 C        -0.6939243755        6.1531889463      -17.2038685137
 O        -1.3215369438        6.6008046017      -16.2315847260
 C        -0.5700907634        4.5950224150      -17.5997479269
 C         0.6940781980        4.1109704293      -16.8008043519
 O         0.7458798802        4.2568697524      -15.6232296168
 C         1.7781337020        3.1894026278      -17.5940079488
 C         3.1094152519        3.0856985324      -16.8613424243
 C         4.4613030718        3.5096796582      -17.6600326567
 O         4.4549443662        4.3423043905      -18.5737482289
 C         5.8610540486        2.8309649089      -17.2892551052
 C         6.1360876326        3.1174168249      -15.7576058454
 O         5.6251665485        2.3572454788      -14.9697409513
 C         6.9570516568        4.2951884497      -15.2964003994
 C         6.8623287102        4.5047751277      -13.7687106990
 C         6.3713014750        5.8771364374      -13.2111927373
 O         6.0874742975        6.6776310593      -14.1112781833
 C         6.2303652414        6.1752217233      -11.7053024103
 C         5.0182530221        5.2588259262      -11.1827790150
 O         5.3088620548        4.1546183236      -10.7331109529
 C         3.7201592586        5.9068699844      -11.3948226165
 C         2.5285116738        5.0258612004      -10.8861242777
 C         1.2262058609        5.5104031736      -11.5234047027
 O         1.2124346557        6.2427448712      -12.5010760269
 C        -0.2514201779        4.9299355472      -11.0432824462
 C        -0.8798983813        3.9248037874      -12.0125091682
 O        -1.2636755701        4.3505104721      -13.0950274103
 C        -1.3317111423        2.5695993732      -11.3375386859
 C        -1.9052488423        1.6824433596      -12.4139916809
 C        -2.6991131115        0.3689305247      -12.2174514091
 O        -3.7892812267        0.2860172375      -12.7162273936
 C        -2.0162547683       -0.7602423198      -11.4390183088
 C        -2.1648600142       -0.5935399040       -9.9766199602
 O        -1.2357669958       -0.3871834885       -9.1913661402
 C        -3.5708325485       -0.9443797261       -9.4982333275
 C        -3.6520224445       -0.9378949891       -7.9363366240
 C        -4.2221432447       -2.3168336503       -7.3398490812
 O        -4.6058157952       -3.1508073673       -8.1472673630
 C        -4.0300013189       -2.7567181336       -5.8476358201
 C        -3.8250807409       -4.2689221155       -5.7833547441
 O        -4.7613862110       -5.0525140004       -6.0556865863
 C        -2.5367813271       -4.8993936948       -5.3737121653
 C        -2.2697424178       -6.2480496793       -6.0567375088
 C        -2.8797667727       -7.4742247156       -5.3569956176
 O        -3.7619507717       -7.2793378422       -4.5359602747
 C        -2.4521963293       -8.9457426781       -5.8017071329
 C        -3.2830975385       -9.2709121259       -7.0357724981
 O        -2.7470604858       -9.1930700272       -8.1256715438
 C        -4.8165010493       -9.4335614412       -6.9965826467
 C        -5.5019966715       -9.3842399839       -8.4017535068
 C        -6.1057046388       -8.0550630812       -8.7261480739
 O        -5.8182396392       -7.0802702174       -8.0617650415
 C        -6.9970746187       -8.0935700531      -10.0996667659
 C        -7.6855470092       -6.7100612025      -10.1075003412
 O        -6.9197992075       -5.7050614075       -9.9463601300
 C        -9.2024410329       -6.5406612244      -10.0278685691
 C        -9.5702033596       -4.9955497522      -10.1119527471
 C        -9.3358630720       -4.3183397436       -8.8026110801
 O        -8.3674399043       -3.5890875065       -8.7211377449
 C       -10.3087787581       -4.4698918248       -7.6041622794
 C        -9.6932650268       -5.5042557572       -6.4926477010
 O        -8.5061906485       -5.6142787853       -6.4527098560
 C       -10.6379290319       -6.2769182043       -5.5962878145
 C        -9.9482927490       -7.4121606931       -4.8977465721
 C        -9.6551316652       -8.5531224283       -5.9038650761
 O        -9.5306350375       -8.3873144311       -7.1032947049
 C        -9.2973637546       -9.8849670087       -5.2029126656
 C       -10.5508217687      -10.8606127659       -4.8799191488
 O       -11.7055511412      -10.5948595386       -5.1722500272
 C       -10.1466293229      -12.2057179106       -4.4024416450
 C       -11.3063525385      -12.6938569042       -3.5793497207
 C       -11.6202015538      -11.7433440442       -2.4387781149
 O       -10.9855724885      -10.7194377675       -2.4291769031
 C       -12.7506593123      -11.8843102097       -1.3488511338
 C       -13.7297411187      -10.6256615069       -1.3728186381
 O       -14.2199271931      -10.2555094979       -0.3365055902
 C       -14.1342685128      -10.1591911832       -2.7353659005
 C       -13.6446894619      -13.1492145465       -1.6379816657
 C       -12.0578282035      -12.0421457212        0.0605852585
 C        -8.5345576668      -10.7196308260       -6.1760741677
 C        -8.5266524358       -9.5286632890       -3.8583988171
 C       -10.3557081037       -3.1330922676       -6.6470238091
 C       -11.7875985164       -4.8424433091       -7.9454558200
 C        -5.8641096942       -8.0550911327      -11.2428383568
 C        -8.0073161771       -9.2189584325      -10.1721080898
 C        -0.9379386540       -9.0432030875       -6.1529923971
 C        -2.8721303280       -9.9793721184       -4.6682619124
 C        -3.0101504448       -1.9392201014       -5.0503747978
 C        -5.4415850633       -2.5573653523       -5.2034382589
 C        -2.5910473785       -2.1460413700      -11.8685356169
 C        -0.4957214283       -0.8865209050      -11.8889498010
 C        -0.1023696187        4.3594528944       -9.6497875497
 C        -1.1520079790        6.1159684430      -11.0707784885
 C         7.4823673392        5.5503734297      -10.9731021846
 C         5.9935897817        7.6537093735      -11.3789680254
 C         5.7882907141        1.2826084304      -17.3145159662
 C         6.9929057825        3.2784235675      -18.1993809445
 C        -1.7895489405        3.7517214926      -16.8931585863
 C        -0.5888305439        4.3482854668      -19.0907253913
 C         0.6875097870       11.1188120999      -15.9824160174
 C         1.7582497637        9.6080662500      -14.3204478954
 H        -2.7215909999        9.9936203933      -14.1310614936
 H        -2.1712408765       10.9576027200      -15.5550058623
 H        -1.6849328284       11.4399090808      -13.9866358169
 H         0.8881201552        9.0186452410      -18.5737959712
 H        -0.6469455527        9.0368533974      -17.6867181188
 H         0.9747197663        6.5103295005      -18.5278383774
 H        -0.6400085967        7.0513255672      -19.1658877483
 H         1.9138640042        3.7405217844      -18.5288234781
 H         1.3253051477        2.2324876080      -17.7793873584
 H         3.1893769780        2.0369296239      -16.5658851769
 H         3.0494902543        3.7025084666      -15.9202885741
 H         6.6801363650        5.1717313659      -15.9145100846
 H         8.0629458348        4.1052759489      -15.5229098164
 H         7.8112916176        4.1264372680      -13.3234236629
 H         6.2311884012        3.7466038848      -13.2729612246
 H         3.6886035361        6.1246860869      -12.5049117734
 H         3.5844822693        6.8735015130      -10.8569279462
 H         2.5456250011        5.1121418496       -9.7297662044
 H         2.7139424208        3.9937021546      -11.0111604722
 H        -2.1057077444        2.7967759998      -10.6426897552
 H        -0.4860614495        2.0752140797      -10.8801679447
 H        -1.1168268565        1.2592887309      -13.0099926092
 H        -2.3784632635        2.2999816405      -13.1231817784
 H        -3.8413803006       -1.8784545519       -9.9491873255
 H        -4.2304465333       -0.1414385480      -10.0073825831
 H        -4.0523510295        0.0491326589       -7.5698096138
 H        -2.6137668971       -0.8844326396       -7.6618568824
 H        -2.3412915035       -5.0233461622       -4.3063166640
 H        -1.7824366240       -4.1547408189       -5.6899507529
 H        -1.1815828202       -6.4543566463       -6.3256906048
 H        -2.6672683058       -6.1381663989       -7.0650920350
 H        -5.2362919819       -8.6251193112       -6.3918704531
 H        -4.9731925698      -10.3598337149       -6.6233988019
 H        -6.1713152170      -10.2798039804       -8.4008111903
 H        -4.7870120049       -9.5380105470       -9.2693986621
 H        -9.5237877232       -6.9358639760       -9.0171869923
 H        -9.7349226784       -7.1615549683      -10.7885138236
 H       -10.6566072721       -5.0062049274      -10.3340862746
 H        -9.0979185177       -4.4509089226      -10.9168352627
 H       -11.4869529822       -6.5960327617       -6.2105210194
 H       -11.0404883590       -5.5886039720       -4.8347013605
 H       -10.5194692786       -7.8073626372       -4.0583501412
 H        -9.1016128948       -7.0355177481       -4.3708585287
 H        -9.2576526655      -12.1538443657       -3.8937792050
 H       -10.0289079332      -12.9632392199       -5.1238086282
 H       -11.2764111472      -13.7265254186       -3.2166870650
 H       -12.1003334239      -12.7526455369       -4.3034673916
 H       -13.7466425175       -9.1403455737       -2.9590955245
 H       -15.2223070911      -10.0595743367       -2.7710374784
 H       -13.7742576382      -10.7805842609       -3.5951747085
 H       -13.8862611953      -13.3100088481       -2.7637907513
 H       -14.5263116285      -13.0787791089       -0.9797212443
 H       -13.1342845813      -14.0565638386       -1.3755540407
 H       -12.8006863943      -12.4316919348        0.7475997273
 H       -11.7668396688      -11.0664304581        0.4225568113
 H       -11.2712678378      -12.7959980585       -0.0608581157
 H        -8.1679591619      -11.5685842815       -5.6295809275
 H        -7.7306662073      -10.1979603942       -6.6365049502
 H        -9.2064106057      -10.9725967367       -7.0283212697
 H        -9.1247583785       -8.9188624687       -3.1834694598
 H        -7.5382706415       -8.9825793778       -4.0523849000
 H        -8.2288039692      -10.4804350343       -3.4294374035
 H        -9.3461721140       -2.8118815041       -6.3839468983
 H       -10.7256902790       -3.3038053759       -5.6249829279
 H       -10.9739034127       -2.2428464156       -7.0168162226
 H       -12.1315526320       -4.6115665734       -8.9679121352
 H       -12.4482910656       -4.5399146493       -7.2011916992
 H       -11.9885962315       -5.9434982782       -7.6948281539
 H        -5.2435787302       -8.9351039606      -11.1837352894
 H        -5.2711410839       -7.2049268929      -11.0459044416
 H        -6.2645699416       -8.1163039730      -12.2516651202
 H        -7.6359219692      -10.2293586667      -10.1418988526
 H        -8.4916802821       -9.1614245271      -11.1491212197
 H        -8.7073618976       -9.1716897458       -9.2908659377
 H        -0.2670655247       -8.4526508646       -5.5638540381
 H        -0.7713249004       -8.8133034964       -7.1906719160
 H        -0.7576081108      -10.1453817758       -6.0808832461
 H        -2.0949187438       -9.9881646799       -3.9054320336
 H        -2.9320162397      -10.9572684198       -5.1350430926
 H        -3.8067190544       -9.8751071019       -4.1219013477
 H        -3.0041837191       -2.2973957649       -4.0202480983
 H        -3.1424451675       -0.8604574767       -5.0603663072
 H        -1.9892641831       -2.1144793652       -5.4450430944
 H        -6.1675670352       -3.2099073389       -5.6821452359
 H        -6.0514745355       -1.6067392690       -5.3317884691
 H        -5.4156330958       -2.7514626985       -4.1129610218
 H        -2.3586615852       -2.4202115038      -12.8937540513
 H        -3.6200185939       -2.1887828751      -11.7037459459
 H        -2.2108840132       -2.9494718443      -11.2060591249
 H         0.3694535589       -0.4193970211      -11.3682965883
 H        -0.3389608087       -0.6918406402      -12.9577720584
 H        -0.2896677883       -1.9625108631      -11.7930006778
 H         0.5679960005        3.4292415925       -9.5949024919
 H        -0.9434075468        3.9947060482       -9.1384843657
 H         0.2838651033        5.1324454590       -9.0199913791
 H        -2.2573699413        5.8865494449      -11.0540830949
 H        -0.9716572804        6.7019359589      -11.9855840210
 H        -0.8037451658        6.8463157805      -10.3936155898
 H         7.6427403540        4.5270649450      -11.1866661573
 H         7.4278612187        5.6284205888       -9.8818960936
 H         8.4127600476        6.1112174995      -11.3269736147
 H         6.2265074922        8.2786938008      -12.2297564557
 H         6.6785165410        7.9968088119      -10.5929754256
 H         5.0288948441        8.0841468982      -11.1427136460
 H         6.7903588916        0.8840913286      -17.1754829375
 H         5.4502780641        0.7953554267      -18.2836243120
 H         5.1669100321        0.7804898080      -16.5993899906
 H         7.1292950393        4.3436776914      -18.1153970428
 H         6.8572707279        2.9255963481      -19.2831572355
 H         7.8808441658        2.7894004786      -17.9708038307
 H        -2.8024822122        4.2809763544      -17.0226448575
 H        -1.5341517070        3.6155228064      -15.8586208084
 H        -1.9552911627        2.8219549366      -17.3133017229
 H        -0.5973605083        3.2466080680      -19.3483261666
 H         0.2692376963        4.7935502433      -19.5338063379
 H        -1.4758544661        4.8021115235      -19.5987580636
 H        -0.0097710640       11.2759510041      -16.7689779622
 H         1.7288861475       11.0908455536      -16.2706166959
 H         0.4756948853       11.8386836212      -15.2055971044
 H         1.5819751026        8.8361390396      -13.6465411088
 H         1.7946080639       10.5121988173      -13.6932553530
 H         2.7026556464        9.7102160066      -14.8267203542
 Na       -0.1222657855        6.1904509842      -14.2156585123
 Na       -6.6614287643       -4.8853721274       -7.6886239181
