232

 C        -1.7084808494       10.3071686913      -13.7805579665
 C        -0.8579390462        9.1115459269      -14.2990042051
 O        -1.0896377648        7.9605625504      -13.9315001484
 C         0.3824933076        9.4108679693      -15.1648116848
 C         0.5817908782        8.1934698266      -16.1208465274
 O         0.9998626750        7.1382975412      -15.6590186268
 C         0.1070982346        8.2599324844      -17.5731196193
 C        -0.0039816392        6.8954009024      -18.2730458511
 C        -0.7299637428        6.0015367861      -17.2927693396
 O        -1.5098809113        6.4208697569      -16.4593678013
 C        -0.3910552866        4.4051418285      -17.3951260164
 C         0.9268028343        4.0499856749      -16.6749047120
 O         1.0582075999        4.2105554055      -15.5016221744
 C         2.0605049666        3.6635131829      -17.5626209588
 C         3.3378691103        3.3374538114      -16.8410818017
 C         4.5816343269        3.6522730994      -17.7276536361
 O         4.4249226480        4.2706243206      -18.8044049837
 C         5.9977033153        3.0801004642      -17.4279272821
 C         6.1628032415        3.3086197785      -15.8639624354
 O         5.4035679984        2.6180762101      -15.2104893159
 C         7.1702961873        4.2506989109      -15.3366713027
 C         7.1440016523        4.2673346258      -13.7879210244
 C         6.6185289427        5.7103968175      -13.1329007717
 O         6.3276141731        6.6461054425      -13.8410103680
 C         6.4195538907        5.8084896362      -11.6045090241
 C         5.0613715386        5.1164020733      -11.2899034445
 O         5.0401391377        3.9100106457      -10.9793049289
 C         3.7677552362        5.7585048510      -11.6982820634
 C         2.6375026328        5.0699794647      -11.0106502378
 C         1.1876618115        5.4193357088      -11.5527096360
 O         1.1432147988        5.9342714287      -12.6593834125
 C        -0.1429373161        4.9848243909      -10.8184638009
 C        -0.8930857404        4.0337396221      -11.9386728106
 O        -1.1284052217        4.3633309408      -13.0868613636
 C        -1.4410243237        2.5768279343      -11.5003750585
 C        -2.1151258429        1.6824722431      -12.6083891084
 C        -2.8442540451        0.4178018363      -12.2550873501
 O        -4.0199186550        0.2562575868      -12.6546350909
 C        -2.0523869658       -0.7169996517      -11.5831615797
 C        -2.2693453809       -0.4251715562      -10.0647764166
 O        -1.2722931622       -0.0266606502       -9.4754473318
 C        -3.6483232099       -0.6121697338       -9.4111299459
 C        -3.5808892578       -0.8980787477       -7.8763175901
 C        -4.2285471038       -2.2560184574       -7.4028215286
 O        -4.7115897151       -3.0407491509       -8.2018783034
 C        -4.1995491240       -2.5432495015       -5.8139228380
 C        -3.8236881959       -4.1803490997       -5.7153569490
 O        -4.5045794094       -4.9956580828       -6.3600670630
 C        -2.5325119148       -4.6218982770       -5.1170760335
 C        -2.0048038319       -5.9872272714       -5.7039075667
 C        -2.8443043730       -7.2895968285       -5.3354924720
 O        -3.8938618629       -7.2616814354       -4.7216807366
 C        -2.3741059253       -8.7266409230       -5.8364714669
 C        -3.1242883525       -9.2117234146       -7.1296831943
 O        -2.5322602490       -9.3884335451       -8.1689058894
 C        -4.6568052864       -9.4849886033       -6.9616247898
 C        -5.4122670497       -9.5144472045       -8.3055761679
 C        -6.0251802768       -8.0561293625       -8.6453954628
 O        -5.8759270811       -7.2242770216       -7.7732881110
 C        -6.8841450219       -7.8928778988       -9.9882410242
 C        -7.5823119458       -6.5355475606      -10.1520489529
 O        -6.8351934391       -5.5278132635      -10.2089226815
 C        -9.1157446295       -6.3969519621      -10.3075065538
 C        -9.5233824898       -4.9262045185      -10.2470134944
 C        -9.3321924070       -4.2027185807       -8.9044098775
 O        -8.2924480581       -3.6044693336       -8.6227273273
 C       -10.4053032554       -4.3813360161       -7.7520025737
 C        -9.8090937472       -5.5164335407       -6.6595946398
 O        -8.6306007767       -5.6630971165       -6.7233040628
 C       -10.7698551586       -6.2370131781       -5.6488208881
 C       -10.1699535737       -7.3269421618       -4.8545092236
 C        -9.8094123071       -8.6256844198       -5.7767021232
 O       -10.2253299960       -8.5339458570       -6.9428830154
 C        -9.1831444739       -9.9261507267       -5.1568898851
 C       -10.5145575585      -10.9285021560       -4.8822773963
 O       -11.5572860269      -10.3504310941       -5.0859936314
 C       -10.3754987789      -12.3343573905       -4.3716142486
 C       -11.5383691873      -12.7693181438       -3.5255852668
 C       -11.8230546727      -11.8426043393       -2.2443168266
 O       -11.1337353272      -10.8581446898       -2.1643548951
 C       -12.9157209950      -12.0735264174       -1.2187638767
 C       -13.7733640650      -10.6761644335       -1.0244517775
 O       -13.9463787973      -10.1418427401        0.0285708930
 C       -14.0732837389       -9.8970868186       -2.3549073602
 C       -13.9302746702      -13.2093338489       -1.4551077932
 C       -12.2035216269      -12.2463953515        0.2501341622
 C        -8.3325361342      -10.4852192118       -6.3313019111
 C        -8.2954343455       -9.8122986281       -3.9198130839
 C       -10.5441762049       -2.9315581669       -6.9985401125
 C       -11.8287357350       -4.6899391590       -8.3084153222
 C        -5.9957307747       -8.0057527319      -11.2369475283
 C        -7.9354230724       -9.0314047720      -10.0083081937
 C        -0.7744156963       -8.7793779556       -6.1442343257
 C        -2.7230538382       -9.7542407299       -4.7411925541
 C        -3.1722168818       -1.7246762222       -4.9617329360
 C        -5.7019425753       -2.2991304486       -5.4490345957
 C        -2.6566082336       -2.1086085176      -12.1921885030
 C        -0.5286563431       -0.8369200218      -11.8052186317
 C        -0.0138675332        4.3942111638       -9.4463032046
 C        -0.9655083574        6.2631722170      -10.7668154089
 C         7.6249390290        5.0826928069      -10.9415993155
 C         6.4765679003        7.3155883475      -11.2086784908
 C         5.9621670258        1.5998972696      -17.8969405466
 C         6.9813075675        3.8221026233      -18.4165435569
 C        -1.5535564816        3.6306109167      -16.6780825885
 C        -0.3561861766        3.9086802272      -18.8884521986
 C         0.1944755654       10.7080975847      -16.0563356426
 C         1.6185381418        9.6380706983      -14.2237515529
 H        -2.7026667358       10.0911726269      -13.3047471702
 H        -1.9341050886       11.0344111780      -14.5556991680
 H        -1.0404274162       10.8377347968      -13.1101039100
 H         0.9630754033        8.9119262494      -17.9927086625
 H        -0.8332190358        8.7500767227      -17.6102332338
 H         0.7613868173        6.3094059540      -18.6940102243
 H        -0.6775029335        7.0579751795      -19.1080525528
 H         2.3436551328        4.5277426775      -18.1825399669
 H         1.5971032157        2.8901426929      -18.1983997482
 H         3.4611423324        2.2687662330      -16.6208311520
 H         3.3695217348        3.8411035690      -15.8678614815
 H         6.9179025458        5.2040191476      -15.6849836635
 H         8.1081292042        4.0698996048      -15.8213521545
 H         8.1627004845        4.1089145565      -13.4032071064
 H         6.5640751151        3.3823970704      -13.4020836659
 H         3.5278709253        5.8269022778      -12.7297290412
 H         3.6258941798        6.8634382709      -11.4405560957
 H         2.6759382597        5.3349499325       -9.9209731039
 H         2.8287555646        3.9995719491      -11.0621206715
 H        -2.1956689170        2.9614033307      -10.7273368424
 H        -0.5486511776        2.0615757002      -11.1392299770
 H        -1.4356129791        1.5534628389      -13.4367190738
 H        -2.8405322553        2.3495255516      -13.1999108559
 H        -4.1477763857       -1.4084249526       -9.8711049714
 H        -4.2173982457        0.3661736353       -9.7356732945
 H        -3.9235285357       -0.0333399281       -7.2799091678
 H        -2.6224730918       -0.9594645181       -7.6362037188
 H        -2.7192096206       -4.7004204857       -3.9688475857
 H        -1.8227292203       -3.8373317472       -5.2588757784
 H        -0.8991183791       -6.1202757831       -5.4948358930
 H        -2.1019845046       -5.9043976919       -6.7683369038
 H        -4.9554251510       -8.5961701843       -6.1974271641
 H        -4.7661036798      -10.5451620344       -6.5836425060
 H        -6.2157094391      -10.2891276310       -8.2140038218
 H        -4.7479117584       -9.8992337641       -8.9777328310
 H        -9.3973043977       -6.9803916578       -9.4342566929
 H        -9.3915704584       -6.9229613526      -11.1182619089
 H       -10.5682827561       -4.8112199529      -10.4999844449
 H        -8.9703003953       -4.3446974299      -10.9491263693
 H       -11.6265740574       -6.5737557423       -6.2434937958
 H       -11.0568242185       -5.4677271511       -4.9225890234
 H       -10.8594459941       -7.6893374298       -4.0687881591
 H        -9.3679806950       -7.0057108001       -4.1982848963
 H        -9.5078991543      -12.4928170406       -3.6834024388
 H       -10.1518344095      -13.0184341529       -5.2842529611
 H       -11.4195808979      -13.7816710779       -3.1473145016
 H       -12.5425905345      -12.7471761800       -4.0459531899
 H       -13.6491028124       -8.9427245916       -2.1487254960
 H       -15.1090150696       -9.7034218747       -2.6975538104
 H       -13.5050778923      -10.1870109663       -3.2136679449
 H       -14.5889239950      -13.0934093521       -2.4051686164
 H       -14.6758753042      -13.2939158347       -0.6797074552
 H       -13.4203197271      -14.1252318067       -1.5448749326
 H       -12.8943447755      -11.9140436518        1.0130119353
 H       -11.2303546712      -11.7589587975        0.2077681153
 H       -12.0845307777      -13.3691164927        0.4691068846
 H        -7.8659746547      -11.4690790982       -6.0123668544
 H        -7.5780074164       -9.7897953775       -6.4746705967
 H        -8.9322965743      -10.7071485755       -7.2629686752
 H        -8.7832638074       -9.7096311572       -3.0049759707
 H        -7.6475842835       -8.9554373209       -4.0528436284
 H        -7.7703186473      -10.7907712328       -3.8641034121
 H        -9.6544038942       -2.6561334356       -6.4778107834
 H       -11.2979310191       -2.8777327880       -6.2012036035
 H       -10.7820985730       -2.1359934875       -7.6691653001
 H       -12.1193885517       -5.7275605315       -8.6019682440
 H       -11.9530796320       -3.9988554281       -9.1431022270
 H       -12.5976859100       -4.2184178968       -7.5844614141
 H        -5.3929220592       -8.9600969877      -11.3414029872
 H        -5.3327551878       -7.1499963970      -11.1684593255
 H        -6.6106161500       -7.9134251912      -12.1328669781
 H        -7.4820453546       -9.9652822108      -10.1410397765
 H        -8.6395961898       -8.8712249887      -10.8975675118
 H        -8.4981705976       -9.0706435524       -9.0555780560
 H        -0.2902827638       -8.7627936871       -5.1359165643
 H        -0.4886742476       -7.9373863136       -6.8019183813
 H        -0.4407589169       -9.7094494726       -6.6989551565
 H        -2.1685085725       -9.4616917440       -3.8715423309
 H        -2.4249726781      -10.7751095624       -4.9900149483
 H        -3.7752069682       -9.7290486910       -4.3934054198
 H        -3.3626417625       -1.9727988216       -3.9314252598
 H        -3.4819299622       -0.6812353629       -4.9724307448
 H        -2.1077862219       -1.8199634591       -5.1920213776
 H        -6.3323263886       -2.8777036995       -6.0883191573
 H        -6.1023999644       -1.3071555864       -5.4348727362
 H        -5.9130692948       -2.6110963027       -4.4504450030
 H        -2.1519069237       -2.1208689654      -13.1850081516
 H        -3.6964541523       -2.1061696650      -12.3427838505
 H        -2.4256773039       -3.0655362311      -11.7062369786
 H        -0.0124608796        0.1044198982      -11.8245659945
 H        -0.3539143981       -1.3168366856      -12.7461296579
 H         0.0324782163       -1.3596310574      -11.0234536694
 H         0.3352145090        3.3351970573       -9.4093860097
 H        -0.9223752605        4.2755183691       -8.9851195067
 H         0.4860051465        5.0821489175       -8.7947234270
 H        -1.9530518919        6.0416020732      -10.3651112149
 H        -1.1089097478        6.6330041571      -11.7742231655
 H        -0.5582622994        7.0885527787      -10.2019641582
 H         7.4785190243        4.0475956585      -10.9482112874
 H         7.5460244046        5.3239255121       -9.8876223194
 H         8.6237855055        5.2317563963      -11.4114765626
 H         5.4934436980        7.8806181365      -11.3884530007
 H         7.1625014791        7.9019557395      -11.8402062871
 H         6.5592330575        7.4867679668      -10.1799916794
 H         6.8955236034        1.1296862097      -17.9215074709
 H         5.6433000643        1.5563366918      -18.9714362776
 H         5.2755489496        0.9379829121      -17.4451988153
 H         7.1020185692        4.8299866089      -17.9851005195
 H         6.6489270657        3.8209901559      -19.4613995355
 H         7.9280736382        3.3960923398      -18.4535956550
 H        -2.5320769219        3.7885287488      -17.2194460130
 H        -1.7485367491        4.2267658091      -15.7410021455
 H        -1.3473715869        2.6190139870      -16.4495860431
 H        -0.4154770093        2.8428499433      -19.0149956968
 H         0.5032396284        4.2876494072      -19.4006781613
 H        -1.2594323501        4.2765992181      -19.4098549857
 H        -0.7912499052       10.6241230695      -16.4733134574
 H         0.9696107806       10.7114285182      -16.8647077450
 H         0.3089704745       11.5605904663      -15.3902937340
 H         1.6485498605        8.9152515399      -13.4354790797
 H         1.4144942959       10.6448228626      -13.6753408113
 H         2.4999011099        9.8663928205      -14.8544124333
 Na       -0.4103740876        5.7511286644      -14.5226992435
 Na       -6.2815038732       -4.6956876473       -7.9399638503
