232

 C        -1.6048981202       10.2787536490      -13.4946773766
 C        -0.8967263041        9.0606247885      -14.1849241783
 O        -1.2219770150        7.9257567015      -13.7973164575
 C         0.2384668607        9.3593386146      -15.1702481844
 C         0.5473971417        8.1070067528      -16.1184397511
 O         1.0989901878        7.1326820170      -15.7034370929
 C         0.0139762302        8.1674762745      -17.6494985604
 C         0.0342777484        6.7987727589      -18.2890761056
 C        -0.7573959540        5.8212262295      -17.4684278212
 O        -1.5521233880        6.2766766378      -16.6350803020
 C        -0.5035072432        4.3052506486      -17.3769785885
 C         0.9384410967        4.1914969520      -16.6714565848
 O         1.1004997637        4.2580087655      -15.4811905196
 C         2.1463220960        3.7879627527      -17.6008827652
 C         3.4534721294        3.4583213863      -16.9385884221
 C         4.5661383567        3.7154950919      -17.9375835874
 O         4.3491608210        4.3570202549      -18.9164442183
 C         5.9380995116        3.2521558732      -17.4846910502
 C         6.1281199050        3.2592005011      -15.9027930661
 O         5.4157165860        2.5815842334      -15.1837709873
 C         7.0833901619        4.3544252564      -15.2869523262
 C         7.2590930632        4.2605865946      -13.7983331546
 C         6.7365792276        5.5662583028      -13.1835441480
 O         6.4452081033        6.4778767974      -13.9513279531
 C         6.5272944639        5.6517853574      -11.6386596006
 C         5.1076955982        5.0153935359      -11.4631917628
 O         5.1181078194        3.9191801382      -10.9995327284
 C         3.7902379876        5.7846119414      -11.7054359421
 C         2.5738556276        5.0853838675      -10.9861705185
 C         1.2021679432        5.2844490999      -11.6326955616
 O         1.0696061756        5.8733471955      -12.6672539676
 C        -0.0886933265        4.7899174329      -10.8759420218
 C        -0.8382187865        3.9589375036      -11.8007160896
 O        -1.2111958793        4.3223956014      -12.8746256782
 C        -1.4831049550        2.5122379616      -11.3424931273
 C        -2.0084821863        1.8577711075      -12.6243018629
 C        -2.9012805449        0.5161772348      -12.3508441835
 O        -4.0496372549        0.3806347272      -12.5505304857
 C        -2.0525691857       -0.6336030227      -11.6605702948
 C        -2.2988664468       -0.3943358436      -10.0511098390
 O        -1.3927139156        0.0895979697       -9.4158508326
 C        -3.6475588257       -0.5995350334       -9.4521726552
 C        -3.4409396534       -0.9184418326       -7.9166126657
 C        -4.1316392518       -2.2641075308       -7.4561540188
 O        -4.7900044095       -2.8380066179       -8.2843859033
 C        -4.2327926028       -2.6197835472       -5.9584287083
 C        -3.8046958522       -4.1364176188       -5.8519808380
 O        -4.4911252372       -5.0051518633       -6.3377686066
 C        -2.6345882415       -4.6012328913       -4.9538619502
 C        -2.0162392157       -5.8758611311       -5.5910455341
 C        -2.8531313853       -7.1791041358       -5.3896727100
 O        -3.9082472933       -7.1042767243       -4.7702241182
 C        -2.3511395490       -8.5960949292       -5.7927229520
 C        -3.0232273867       -9.1282337089       -7.1014050488
 O        -2.4563799295       -9.3640911317       -8.1596242446
 C        -4.5669286555       -9.5503233315       -7.0031784673
 C        -5.3851502812       -9.4369531580       -8.2765636549
 C        -6.0326332072       -8.0611105045       -8.5748059746
 O        -5.9633009758       -7.0720721864       -7.8885907321
 C        -6.8427149391       -7.9009500346       -9.9433936913
 C        -7.4975923200       -6.4801645555      -10.0578019199
 O        -6.7517902831       -5.4817209354      -10.2320239135
 C        -9.0449428793       -6.2919370137      -10.2618419192
 C        -9.4414954965       -4.8701139195      -10.2232395648
 C        -9.2797551880       -4.1970141443       -8.8663187632
 O        -8.2339912300       -3.6407980431       -8.6627689170
 C       -10.4174104251       -4.2680082766       -7.7547226262
 C        -9.8702461373       -5.4566862492       -6.7084121000
 O        -8.7217402392       -5.7935066721       -6.7679302089
 C       -10.8124405298       -6.2277494992       -5.7429369152
 C       -10.0562712502       -7.3702829122       -4.9410011245
 C        -9.8903166194       -8.6597983188       -5.7506356698
 O       -10.2707746116       -8.6828213368       -6.8896297581
 C        -9.2576879907       -9.9115080077       -5.1894920365
 C       -10.5462392070      -10.7907827036       -4.8882135706
 O       -11.6641752255      -10.3495670063       -5.0380026877
 C       -10.3915923286      -12.2278227409       -4.4099863126
 C       -11.5681378676      -12.6808003583       -3.5169327050
 C       -11.7594950558      -11.7574308184       -2.1794282941
 O       -11.0509590543      -10.7621936034       -2.1422789857
 C       -12.8950098527      -12.0564265223       -1.0444939291
 C       -13.5989035275      -10.5957748799       -0.9362506544
 O       -14.0181831842      -10.1641850909        0.1513883566
 C       -14.0207619920      -10.0031698282       -2.2181510910
 C       -14.0081983874      -13.0310374489       -1.4503403794
 C       -12.3383876285      -12.4796522493        0.3192449642
 C        -8.3752750844      -10.4843264294       -6.4251456698
 C        -8.4022765872       -9.8157778122       -3.8991052724
 C       -10.5849082061       -2.9182055678       -7.0721778889
 C       -11.7320329143       -4.7620529629       -8.2875974837
 C        -5.8995528287       -8.0385626635      -11.2091214017
 C        -8.0237830562       -8.9825664613       -9.9238516862
 C        -0.8009766544       -8.6012931057       -6.1562095174
 C        -2.6050431132       -9.6890774606       -4.7209272033
 C        -3.3023644483       -1.8356066761       -5.0793449538
 C        -5.6537507226       -2.4155345189       -5.4896937469
 C        -2.6614193551       -2.0940655264      -12.0195290725
 C        -0.5914501623       -0.6913120349      -11.9438541946
 C        -0.0043634251        4.2328213916       -9.4238672040
 C        -0.9275158455        6.1866547115      -10.9025565423
 C         7.5723432891        4.8037582615      -10.9264223759
 C         6.5357088947        7.1114405943      -11.1501413379
 C         6.0644082771        1.7836364523      -17.9112754853
 C         7.0563309734        4.1024459057      -18.1854682402
 C        -1.4827248996        3.4478514654      -16.5690986923
 C        -0.3500261120        3.7574700544      -18.8223136936
 C         0.0769736168       10.7452531499      -15.9594274842
 C         1.4430506265        9.6186291950      -14.2074368235
 H        -2.3887384579        9.9118179919      -12.8184414384
 H        -2.1348536885       11.0804466671      -14.1044666248
 H        -0.8025060233       10.8021830892      -12.9040537806
 H         0.8753787150        8.7719000887      -18.0778287099
 H        -0.9711447825        8.7001751741      -17.6510877845
 H         1.0130684865        6.2948846539      -18.3534963355
 H        -0.2506170874        6.8305555260      -19.3446849958
 H         2.4110626334        4.6414558604      -18.2429543824
 H         1.7842070686        2.9964693890      -18.2467610182
 H         3.5081775443        2.4265975980      -16.5845869404
 H         3.7281924330        4.0605376545      -16.0230941492
 H         6.7785984215        5.3299758540      -15.5593518516
 H         8.0494403456        4.2717537652      -15.7984553311
 H         8.3705843190        4.2582224802      -13.4952774487
 H         6.8253382067        3.2979371161      -13.3937569882
 H         3.4329433216        5.8012702267      -12.7666402104
 H         3.7328957928        6.8304744116      -11.5702305348
 H         2.4026025113        5.3739390909       -9.8788490776
 H         2.8029309229        4.0402097830      -10.9900066539
 H        -2.2625241240        2.8706208819      -10.7306840666
 H        -0.6942506088        1.8683965141      -10.9002178911
 H        -1.1777113442        1.6772932866      -13.2989549965
 H        -2.4474483158        2.6031790167      -13.2104073793
 H        -4.2678226310       -1.3679848193       -9.9385248678
 H        -4.1925047304        0.3757781284       -9.5627455909
 H        -3.7702571281       -0.0817420028       -7.3920446100
 H        -2.3846760378       -0.9654921256       -7.6621966145
 H        -2.9408819512       -4.6989957902       -3.9101780506
 H        -1.7875493588       -3.8514345843       -5.0084431049
 H        -1.0271904117       -5.9982424642       -5.0601139556
 H        -1.8058422596       -5.6703294819       -6.6746810717
 H        -5.0082545417       -8.9212817497       -6.2131178855
 H        -4.5172702845      -10.6178123734       -6.7933656478
 H        -6.1656855185      -10.1953651988       -8.3063274281
 H        -4.6987021125       -9.7262118310       -9.0923226115
 H        -9.5391134278       -6.9386454989       -9.6202916746
 H        -9.1267252762       -6.7337583219      -11.2676184776
 H       -10.4828277573       -4.8276242274      -10.4210941879
 H        -8.9397158325       -4.2683477182      -10.9192412398
 H       -11.5913304601       -6.7517941294       -6.3073263990
 H       -11.1956379311       -5.5228141266       -5.0111217865
 H       -10.6211966239       -7.6224450239       -4.0657720972
 H        -9.1225056088       -7.2187266655       -4.4711165392
 H        -9.4818100500      -12.6011059960       -3.9912891647
 H       -10.5120530988      -12.7734986792       -5.3522797244
 H       -11.4749786269      -13.7458838653       -3.2185404423
 H       -12.5162851782      -12.5532235059       -4.0183318246
 H       -13.8476070534       -8.9324525797       -2.3051678061
 H       -15.0722901238      -10.1319313886       -2.2154760553
 H       -13.6123895785      -10.4260269269       -3.1659881065
 H       -14.7027235725      -12.4602035299       -2.1257494808
 H       -14.7316788876      -13.4242043958       -0.6785758629
 H       -13.6492929360      -13.9086922491       -2.0506541441
 H       -13.1042206513      -12.4644024731        1.1592754975
 H       -11.4065041725      -11.8471338753        0.4077836878
 H       -12.0053170639      -13.4951268230        0.2882659861
 H        -8.1811113977      -11.5015251384       -6.2470216192
 H        -7.4217810676       -9.9394056154       -6.3043188954
 H        -8.8406724140      -10.4390887112       -7.4016041961
 H        -9.0335764573       -9.6001936686       -3.0027811155
 H        -7.7565682699       -8.9303395891       -4.0309199601
 H        -7.9561849903      -10.7106067863       -3.6286520221
 H        -9.7199053404       -2.5645578627       -6.5255245304
 H       -11.4279328280       -2.7529938580       -6.4322863059
 H       -10.6994883874       -2.1624704669       -7.9311995488
 H       -11.9150661967       -5.9114994840       -8.0724725461
 H       -11.7140125083       -4.6428117958       -9.3609385390
 H       -12.6372559660       -4.1668991079       -7.9398964071
 H        -5.2636706416       -8.9177472837      -11.2037711151
 H        -5.2764685339       -7.1366832789      -11.2146267348
 H        -6.5131763980       -8.0314677663      -12.1591264333
 H        -7.6456974333      -10.0312963878       -9.7293871174
 H        -8.4233972596       -8.9567905977      -10.8736228263
 H        -8.8640546050       -8.7568260298       -9.1845926510
 H        -0.2034967299       -8.7634723866       -5.2403200257
 H        -0.5375775404       -7.7739515507       -6.8355294149
 H        -0.6416350243       -9.5288976849       -6.8033414047
 H        -2.1301810895       -9.3468096597       -3.7744912313
 H        -2.2016867982      -10.6791961422       -4.9384853395
 H        -3.6529691222       -9.7157098211       -4.4824378818
 H        -3.4332440888       -2.0354456375       -4.0390717314
 H        -3.6044305902       -0.8169268652       -5.1424011264
 H        -2.2667240640       -1.9832826532       -5.3679164515
 H        -6.4048825981       -3.0374212155       -5.9150058303
 H        -5.9695516142       -1.3557281501       -5.5943403132
 H        -5.7266919410       -2.5227885616       -4.4187598044
 H        -2.4439639554       -2.2671363806      -13.0488364226
 H        -3.7211981639       -2.1910796646      -11.8936372509
 H        -2.1719276155       -2.9037872118      -11.4734414179
 H        -0.0152916260        0.2657087397      -11.8106813382
 H        -0.4057692076       -1.1033896776      -12.9554141254
 H        -0.0680754734       -1.3216972064      -11.2220841138
 H         0.3866963068        3.2096174523       -9.4097919507
 H        -0.9694612043        4.0714380098       -8.9671565037
 H         0.5041231308        4.8786174749       -8.7842395265
 H        -1.7866534778        6.1165448867      -10.1878091406
 H        -1.3103567510        6.4653775716      -11.8904725305
 H        -0.3768440975        6.9920275972      -10.5083533479
 H         7.3619559541        3.7816398072      -11.1911405335
 H         7.4704127135        4.8355531022       -9.8531849223
 H         8.5992955474        4.9419841813      -11.3248760599
 H         5.6497095027        7.4710080080      -10.7641036787
 H         6.7016988913        7.7514493621      -12.0219220438
 H         7.1995415318        7.3640804899      -10.2629042183
 H         7.0572159091        1.3806168466      -17.8274888362
 H         5.7347246330        1.5041904546      -18.9046038702
 H         5.4232708099        1.2045144298      -17.2995118302
 H         7.1002675028        5.0840831225      -17.8951147569
 H         6.8972008460        3.9889563926      -19.2965721927
 H         8.0177240430        3.6693538685      -17.9919935521
 H        -2.5406182194        3.4644544279      -17.0167422418
 H        -1.6427387145        3.9308776282      -15.6357370369
 H        -1.0684687522        2.4712114964      -16.4222398023
 H        -0.3208903673        2.6028367291      -18.8694004456
 H         0.5287552577        4.1482912290      -19.3068067577
 H        -1.2679935830        3.9879317293      -19.3908596866
 H        -0.7946867330       10.7970011209      -16.6057560153
 H         1.0029350422       10.7914882839      -16.5488777094
 H         0.1711976320       11.4831108633      -15.1692546458
 H         1.6771700180        8.6299227988      -13.8160680193
 H         1.1308599187       10.1812679319      -13.3047692419
 H         2.2376639782       10.1751534012      -14.7000870283
 Na       -0.4303820466        5.6517056821      -14.6848970439
 Na       -6.3762548174       -4.7506060231       -8.0481077052
