232

 C        -1.5359127213       10.1752759432      -13.2375223814
 C        -1.0339473341        9.0065167428      -14.0353283447
 O        -1.3141671614        7.8804774962      -13.7876233205
 C         0.1794550094        9.3390156430      -15.1505183858
 C         0.4833298670        8.1764961975      -16.1570840329
 O         1.1861139340        7.2755597458      -15.7811540888
 C         0.0210850087        8.1322956006      -17.6805510966
 C         0.1401764686        6.7208058531      -18.2256976693
 C        -0.7907355913        5.6704594605      -17.4024466582
 O        -1.7413474374        6.1203824477      -16.7754621580
 C        -0.4340791878        4.1511267860      -17.3962976233
 C         0.9905358929        4.0907486057      -16.7440272916
 O         1.0985942801        4.2951895273      -15.5178118976
 C         2.1687237455        3.8377165373      -17.7008587256
 C         3.4232951771        3.6602800666      -16.9449154893
 C         4.6179981777        3.9404895748      -17.9810525314
 O         4.3692871785        4.4083239251      -19.0416049798
 C         6.0316764914        3.3452213725      -17.4857018355
 C         6.0946721193        3.3056722233      -15.9792210245
 O         5.5104725047        2.5461924109      -15.2086659646
 C         7.1192459507        4.2994820680      -15.3362072733
 C         7.3872804717        4.2555451768      -13.8639926842
 C         6.8578831201        5.5060042998      -13.2924264525
 O         6.4860039258        6.4808806590      -13.9352559507
 C         6.5871179305        5.5078112210      -11.7156377678
 C         5.0714096240        4.8927415950      -11.3907264229
 O         4.9846232242        3.7471999593      -11.0176118008
 C         3.8486051041        5.6861127454      -11.7395442077
 C         2.5950175725        5.0508605124      -10.9528573569
 C         1.2546870347        5.2203913979      -11.6398973340
 O         1.1513153963        5.7566070002      -12.7332940884
 C        -0.1276005734        4.7621688719      -10.8904074245
 C        -1.0643075584        3.8714043750      -11.7444530533
 O        -1.3253102317        4.1969402250      -12.8901735718
 C        -1.5896640748        2.4310294240      -11.3131916787
 C        -2.0667419774        1.8154867472      -12.6047507022
 C        -2.7926238005        0.5359529287      -12.2874367442
 O        -3.9915339287        0.6578903766      -12.5009840745
 C        -2.0118091985       -0.6686648910      -11.6151049511
 C        -2.2992656226       -0.3196523448      -10.0785101938
 O        -1.4201885594        0.1895597010       -9.4390287099
 C        -3.6293811542       -0.6226325971       -9.3785358111
 C        -3.3752025994       -0.9751240663       -7.9278813341
 C        -4.2251360385       -2.1757050773       -7.5876058726
 O        -4.9098803060       -2.7667295178       -8.4213639930
 C        -4.1691806535       -2.6380684147       -6.0369457336
 C        -3.9157105145       -4.2039876511       -5.9384180402
 O        -4.6285606329       -4.9813988316       -6.4936512908
 C        -2.7133391108       -4.7143014300       -4.9482758091
 C        -1.9305873525       -5.9241298122       -5.4548298058
 C        -2.8725551838       -7.1203264893       -5.2999471863
 O        -3.9596326115       -7.0170556529       -4.8139509001
 C        -2.3042418989       -8.5046928293       -5.8479710336
 C        -3.0389349969       -9.0311461496       -7.1239345454
 O        -2.4394580531       -9.2496828363       -8.1335961113
 C        -4.5634926359       -9.4717022766       -7.0083527804
 C        -5.3196668993       -9.2602954065       -8.3383164521
 C        -6.0280528532       -7.9906837623       -8.5866740779
 O        -5.9115926553       -7.0432354511       -7.8561291687
 C        -6.8989286236       -7.8643003616       -9.9747058112
 C        -7.3876755819       -6.4504854316      -10.1399767012
 O        -6.6561904471       -5.5234575135      -10.1964839917
 C        -8.9703412168       -6.2277509153      -10.2252947628
 C        -9.3930388890       -4.7683148013      -10.3536115128
 C        -9.2809692328       -4.2074105589       -8.7940412714
 O        -8.2789650904       -3.5524934660       -8.5203548351
 C       -10.4015439445       -4.3584557605       -7.7786672436
 C        -9.8088906220       -5.4517462502       -6.7525113341
 O        -8.6284909548       -5.8260432737       -6.8387341785
 C       -10.8375425582       -6.1498249923       -5.8148754065
 C       -10.0165017747       -7.2419401068       -5.0165418837
 C        -9.9219887440       -8.5448954766       -5.8870458024
 O       -10.3729290347       -8.6589930733       -7.0067509633
 C        -9.3418641462       -9.9300445672       -5.2013269283
 C       -10.6515129470      -10.7929074392       -4.9232580970
 O       -11.7365993799      -10.2559045986       -4.9938900546
 C       -10.4868792127      -12.2629017539       -4.3182899648
 C       -11.6723473545      -12.6324618992       -3.3521530035
 C       -11.7044313598      -11.7086234868       -2.1433952467
 O       -10.9770593468      -10.7355723943       -1.9798447182
 C       -12.7636316550      -11.9368093897       -1.0683093016
 C       -13.6566065158      -10.5887325510       -0.8420447764
 O       -13.9297481196      -10.2626845896        0.2861400819
 C       -14.0591530721       -9.9944805840       -2.1611632170
 C       -13.9620515929      -12.8283222429       -1.5766276492
 C       -12.3270756351      -12.6452844312        0.2528626148
 C        -8.4806190261      -10.6366441785       -6.2691516444
 C        -8.5566766839       -9.7495977393       -3.9318205144
 C       -10.5141752050       -3.0053238491       -7.0955645357
 C       -11.8271525955       -4.8799182268       -8.2943943282
 C        -5.9045360177       -8.1626992403      -11.0513755251
 C        -7.9877631519       -9.0044794795       -9.9224481448
 C        -0.7522798190       -8.4003914944       -6.1507980898
 C        -2.4545535440       -9.4729710043       -4.6971830171
 C        -3.2968283743       -1.6927354785       -5.1395708576
 C        -5.6208730034       -2.5798680198       -5.5372158943
 C        -2.7239651087       -1.9534372747      -11.8443544408
 C        -0.5854615752       -0.5815124110      -12.0630074568
 C         0.1549141846        4.2016872034       -9.4897489529
 C        -0.9295275934        6.1172348032      -10.7824912362
 C         7.5264275945        4.5978504200      -10.8916795494
 C         6.6873526110        7.0014305738      -11.1154460826
 C         6.2203993526        1.8732478347      -17.9267151439
 C         7.1367966075        4.3292355447      -18.0572778717
 C        -1.3734218718        3.3598437835      -16.5443016886
 C        -0.5310667842        3.5834787134      -18.9123390497
 C        -0.1109066072       10.6647396059      -15.8999096751
 C         1.4324905973        9.4281935460      -14.2053055802
 H        -2.1834605930        9.8608258154      -12.4227713254
 H        -2.2509375901       10.7675419311      -13.8619692591
 H        -0.7298043603       10.8977413553      -12.9193114763
 H         0.5091290349        8.8744444020      -18.2494394485
 H        -1.0866855511        8.3114816995      -17.4260016837
 H         1.1925758593        6.2998843174      -18.3218413795
 H        -0.1606215722        6.7249508321      -19.3071183249
 H         2.2167551759        4.7099862358      -18.3550284950
 H         1.9069744829        2.9818542545      -18.3327395066
 H         3.4020947922        2.6184178216      -16.5858733136
 H         3.6339099414        4.2383160174      -16.0365715601
 H         6.9263827677        5.3741597021      -15.6270711898
 H         8.0644759316        4.1067831267      -15.8793334756
 H         8.4187573540        3.9809653263      -13.5125535591
 H         6.7082953391        3.4678243169      -13.4623232173
 H         3.6425729226        5.7487817893      -12.8425684579
 H         3.8170549741        6.7240819020      -11.5744920515
 H         2.4674984294        5.5550552158       -9.9991578289
 H         2.7996961872        3.9753940737      -10.7281637836
 H        -2.3339291238        2.6310762629      -10.6154229638
 H        -0.6967614680        1.9615992212      -10.9428054347
 H        -1.2712293414        1.7153951637      -13.3302508040
 H        -2.6704864012        2.5357220638      -13.0592322482
 H        -4.1621474694       -1.5547994472       -9.7921248135
 H        -4.3262956500        0.1232248771       -9.3533315896
 H        -3.6474620795       -0.0998711526       -7.3784855708
 H        -2.2866549160       -1.2501966855       -7.4993367760
 H        -3.1693923354       -5.0785756624       -4.0654917411
 H        -1.9637408471       -3.9202496125       -4.6656041471
 H        -1.1301472022       -5.9996583004       -4.7357396120
 H        -1.5239249727       -5.9316815881       -6.5395427609
 H        -4.9998713965       -8.9138270361       -6.3122688200
 H        -4.4824915604      -10.4917873459       -6.7567758976
 H        -6.1127281615       -9.9972675098       -8.4628995016
 H        -4.5838066743       -9.4800451122       -9.2270321851
 H        -9.4018255067       -6.8484842272       -9.4275246244
 H        -9.1343138260       -6.8972605777      -11.1764224957
 H       -10.4036797244       -4.6819760606      -10.7374048569
 H        -8.6731090116       -4.1566528175      -10.9316661084
 H       -11.5158624451       -6.7478651416       -6.4275532015
 H       -11.3112359829       -5.4007621641       -5.1687594482
 H       -10.3046957511       -7.4663430392       -4.0180200160
 H        -8.9530169995       -7.1198984181       -4.8205623425
 H        -9.5745222529      -12.3828446173       -3.7741417934
 H       -10.4696460132      -13.0099808965       -5.0198623371
 H       -11.6298999831      -13.6666837588       -2.9768108652
 H       -12.6208995630      -12.4731742592       -3.8152167924
 H       -13.8759430387       -8.8966451416       -2.2729059979
 H       -15.1236178701      -10.1185702257       -2.2891419364
 H       -13.5786382303      -10.4432823800       -3.0417467641
 H       -14.7079222593      -12.2686404335       -2.0754296208
 H       -14.6006269181      -13.2741298196       -0.7579837137
 H       -13.6896062838      -13.7323622877       -2.2478149832
 H       -13.2299982240      -12.8702502756        0.8571185370
 H       -11.5495855250      -12.0383305864        0.7287323115
 H       -11.8548086587      -13.5831519424        0.0548169585
 H        -8.4852324830      -11.6862944426       -6.2161405406
 H        -7.4282975614      -10.2485686676       -6.1674349289
 H        -8.9183436668      -10.4372488290       -7.1909330574
 H        -9.2697551882       -9.3552530811       -3.1448227447
 H        -7.8296600195       -8.9635643563       -4.0760574246
 H        -8.2306709207      -10.6428011002       -3.4266382885
 H        -9.5789480703       -2.5314176455       -6.6471279923
 H       -11.3439546256       -2.8807354339       -6.3649877976
 H       -10.7650446597       -2.2986968891       -7.9120347255
 H       -11.8690618912       -5.9381908462       -8.1051776197
 H       -11.9270942324       -4.7099096803       -9.4391718499
 H       -12.6429333813       -4.4607783887       -7.7523408840
 H        -5.4184198543       -9.0789987308      -10.8349991391
 H        -5.1572027691       -7.3466198174      -11.1131747321
 H        -6.4056043410       -8.2319277477      -12.0270872940
 H        -7.5182345044      -10.0137811818       -9.6791228610
 H        -8.4607128962       -9.0541065456      -10.8992660879
 H        -8.7829630213       -8.7871930589       -9.2243416931
 H        -0.2546082444       -8.3205596614       -5.1850946714
 H        -0.5673521657       -7.6554099329       -6.9422754552
 H        -0.4111415398       -9.3139438829       -6.5610363139
 H        -1.9620030774       -9.1605858368       -3.7546686872
 H        -2.1215814874      -10.4987431730       -4.8807013559
 H        -3.5116593838       -9.4172934239       -4.4965065293
 H        -3.2268548772       -1.9413031106       -4.0883136914
 H        -3.8297108701       -0.7579419451       -5.1242251612
 H        -2.3042881192       -1.6159748793       -5.5273088012
 H        -6.3689084219       -3.3035135494       -5.9666940109
 H        -5.9614471337       -1.5704112384       -5.7837510507
 H        -5.8017467167       -2.5826278688       -4.4470806575
 H        -2.7511677034       -2.2168340856      -12.8728706068
 H        -3.7959561967       -1.9859507104      -11.5064215519
 H        -2.1689447104       -2.7133724126      -11.3523287981
 H        -0.1201104994        0.3210315233      -11.6118697220
 H        -0.4616255820       -0.5809013451      -13.1834745673
 H         0.0718220506       -1.3715547229      -11.6734105514
 H         0.7105402042        3.3414776874       -9.6594054015
 H        -0.7466192237        3.7657124379       -8.9406530867
 H         0.7093303349        4.8336686642       -8.7825732981
 H        -1.7346973916        6.1160186974      -10.0475696564
 H        -1.3283845975        6.4445482280      -11.7483264488
 H        -0.3061183652        6.9409980048      -10.3349509349
 H         7.5528916267        3.5452849743      -11.3331821108
 H         7.2241336054        4.5031688446       -9.8458054216
 H         8.5183683812        4.9032617864      -11.0294272729
 H         6.2676172207        7.1540182148      -10.1408380249
 H         6.2634132146        7.7199053046      -11.7895960731
 H         7.7489207521        7.2349549073      -10.9038149265
 H         7.2318476127        1.4362008261      -17.7675945793
 H         5.9539765364        1.5979097746      -18.8909402492
 H         5.5071765957        1.2898056758      -17.3091165570
 H         6.9861030322        5.3784849574      -17.8442639317
 H         7.0274388921        4.1801416461      -19.0931501565
 H         8.2180671000        4.1054895183      -17.7625399725
 H        -2.3062991741        3.4491048228      -16.9571762418
 H        -1.5308795353        3.7449431541      -15.5601735338
 H        -0.9799799190        2.2983843764      -16.5260535157
 H        -0.1305354080        2.5475506911      -18.9593667095
 H        -0.0097744063        4.1772695402      -19.7395660594
 H        -1.5947003140        3.4323118711      -19.0810357369
 H        -0.9204724008       10.4781936019      -16.6242015007
 H         0.7569238498       10.9599330143      -16.4430501666
 H        -0.2839918288       11.3797498866      -15.1126155590
 H         1.7771875461        8.3621977541      -14.1607304141
 H         1.1448029588        9.6858012756      -13.2157235633
 H         2.1752900753       10.0696951063      -14.6629547826
 Na       -0.4821835806        5.6875482419      -14.6198280098
 Na       -6.4062975747       -4.8212657289       -8.0324787943
