232

 C        -1.5481283120        9.5826903174      -12.8026087244
 C        -1.1164651318        8.7089055539      -13.9313679576
 O        -1.3049210066        7.5235051644      -13.9344733737
 C        -0.2552008998        9.3469103064      -15.1179533841
 C        -0.0383644880        8.2420514019      -16.2142821796
 O         0.9555129498        7.5751079326      -16.1480953003
 C        -1.1363479069        7.8130686950      -17.1208304308
 C        -0.6905472437        6.4800606459      -17.9088593122
 C        -0.9769058932        5.1529189964      -17.1938476634
 O        -1.6273234006        5.0459139296      -16.1647314929
 C        -0.2559901702        3.9262907524      -17.6729258660
 C         1.1737327345        3.9824723795      -17.1255465119
 O         1.4044159141        4.1272215996      -15.9386978809
 C         2.3185358076        3.8454523952      -18.0724867803
 C         3.6234433714        3.8690414945      -17.2491771732
 C         4.8215087445        4.2158356203      -18.2413677565
 O         4.6778595067        4.7661979869      -19.3179674374
 C         6.3171697189        3.9959257986      -17.6972710461
 C         6.3697693936        3.7527203863      -16.1836246139
 O         5.7675044361        2.8652394355      -15.5614600116
 C         7.4432743793        4.6025036092      -15.4384095289
 C         7.5917002360        4.0385840898      -13.9530612407
 C         6.7386970240        4.9251152997      -13.0909236633
 O         6.2661723806        6.0019912007      -13.3705200822
 C         6.6772596413        4.4589456500      -11.5355052492
 C         5.2433941794        4.0215744644      -11.3594800766
 O         4.9967429825        2.9095499748      -10.9463709663
 C         4.0600026545        5.0065964554      -11.8221337401
 C         2.7374640331        4.7661389778      -11.0452273223
 C         1.4215841872        4.9471079988      -11.7700458075
 O         1.4185955195        5.2556894597      -12.9646376591
 C         0.1185917625        4.6762147847      -10.9808951559
 C        -0.8886990528        4.0188148720      -11.9083182947
 O        -1.4509029836        4.5512815757      -12.8606216766
 C        -1.5157541043        2.6243502625      -11.5121161150
 C        -2.2602891915        2.1014086365      -12.6731448334
 C        -2.9616683358        0.7533825920      -12.2418492050
 O        -4.1843172229        0.8211963294      -12.1492346340
 C        -2.1949365293       -0.5390474851      -11.6540481559
 C        -2.3299743373       -0.5629508827      -10.0920174995
 O        -1.3621694664       -0.1255439145       -9.5148649124
 C        -3.5232918944       -1.1239400149       -9.3686546356
 C        -3.6609366856       -1.0932635375       -7.7677647692
 C        -4.7629165164       -2.0284588483       -7.3194744231
 O        -5.6115161082       -2.3090934628       -8.1627177655
 C        -4.8660104648       -2.5099060267       -5.8475010864
 C        -4.0651615103       -3.8736029620       -5.9641592932
 O        -4.1910941322       -4.6620033296       -6.8859400107
 C        -3.0689599669       -4.3044722711       -4.7787401473
 C        -2.1861526600       -5.4520500444       -5.3166737713
 C        -2.8194534980       -6.8842272601       -5.0285358618
 O        -3.7800003713       -7.0650462890       -4.3419061214
 C        -2.2285563906       -8.1448606461       -5.8307835746
 C        -3.0212707580       -8.3296566234       -7.1722463930
 O        -2.5530106253       -7.9458150489       -8.2299896847
 C        -4.2516382388       -9.1802010565       -7.0465508135
 C        -5.0204782158       -9.3637404440       -8.3132346957
 C        -5.7597363607       -8.0171879181       -8.5916836354
 O        -5.6828319577       -7.1183838092       -7.8047002142
 C        -6.6795093204       -7.9925076496       -9.8136080073
 C        -7.0672368321       -6.5617035873      -10.1488947680
 O        -6.1533986134       -5.7604553268      -10.2245534043
 C        -8.5490857632       -6.1255977212      -10.3729274109
 C        -8.8870988702       -4.6381812520      -10.3796139005
 C        -9.0080855764       -3.9469169476       -9.0042903185
 O        -8.1802224596       -3.1630059430       -8.5755882084
 C       -10.2847183233       -4.3790414806       -8.1754859396
 C        -9.6500643826       -5.2888719553       -6.9518498694
 O        -8.4169153459       -5.3772108183       -6.7596714087
 C       -10.6405958974       -6.0336174302       -6.0142132710
 C       -10.2137784941       -7.1910753063       -5.2269036519
 C        -9.8334342353       -8.4775922009       -5.9631534803
 O        -9.7221849947       -8.4605982590       -7.1674119130
 C        -9.5688438496       -9.9385429323       -5.1239664335
 C       -10.9218650525      -10.5235419331       -4.5915507774
 O       -11.8972769173       -9.7780812995       -4.6184808094
 C       -11.0340067926      -12.0277072067       -4.2297184155
 C       -12.2134802759      -12.2672174603       -3.3153760335
 C       -12.0668010259      -11.6779141394       -1.9401592337
 O       -11.1356882405      -10.9553443333       -1.6739304479
 C       -13.1188312531      -11.9945123087       -0.8188562411
 C       -13.4664965861      -10.5886966830       -0.1707066389
 O       -13.2712541386      -10.4085314432        0.9590150245
 C       -13.8262743280       -9.3906420362       -1.1283905808
 C       -14.4847082171      -12.6732657277       -1.2773182592
 C       -12.4603356627      -12.9480745327        0.1756385846
 C        -8.9874130144      -10.8300170450       -6.3009488370
 C        -8.5607351684       -9.7837762525       -4.0581332793
 C       -11.0237542003       -3.1874259914       -7.5635578141
 C       -11.3905566046       -5.0953816600       -9.0679946758
 C        -5.7852734716       -8.4149364024      -11.0479690132
 C        -8.0064941497       -8.8593284147       -9.6631474678
 C        -0.6896696082       -7.9174620093       -6.2464441052
 C        -2.2832619827       -9.3314883488       -4.8205090187
 C        -4.2033342926       -1.4872033654       -4.9213161168
 C        -6.2951015880       -2.8054720851       -5.3091745766
 C        -3.0454350760       -1.7185376349      -12.3429124378
 C        -0.7216840698       -0.5673862588      -12.1436532554
 C         0.3831402240        3.9117690602       -9.7251642067
 C        -0.5334314086        6.0392905725      -10.6047146286
 C         7.6262853864        3.3746895341      -11.0350202497
 C         7.0753043945        5.7402958403      -10.7995887497
 C         6.8604649640        2.6732954284      -18.4998342121
 C         7.0088457796        5.3079986780      -18.1047315373
 C        -0.7232864662        2.4843456975      -17.1292240446
 C        -0.2354394098        3.9568162664      -19.2451842239
 C        -0.9209732393       10.6257670692      -15.6058158794
 C         1.1002042711        9.8216337815      -14.4790724140
 H        -1.2382793773        9.1816389183      -11.8913747542
 H        -2.6061427546        9.6897196013      -12.7045239867
 H        -1.0982919001       10.5446352490      -12.7843851555
 H        -1.2330013855        8.6939750731      -17.7044293279
 H        -1.9703833532        7.5667389599      -16.4056418493
 H         0.3481997690        6.4690030782      -18.2256745244
 H        -1.1982703620        6.5469430360      -18.8459281080
 H         2.0982903538        4.6103015064      -18.8397040927
 H         2.3172103203        2.9119929617      -18.6311847656
 H         3.8683742933        2.9612775697      -16.7199221778
 H         3.5984001944        4.6535229970      -16.5029690202
 H         7.1504527603        5.6413849789      -15.4276789803
 H         8.3756802539        4.5134317707      -16.0548425046
 H         8.6107195310        4.1740764870      -13.5995190502
 H         7.2480855723        3.0328360029      -13.9569871966
 H         3.7678240946        4.7373606474      -12.8882136426
 H         4.3035900932        6.0113759558      -11.7941379891
 H         2.8560618598        5.3776467470      -10.0905794563
 H         2.8654386931        3.7546250694      -10.7616900692
 H        -2.2052829224        2.7249510015      -10.6393589236
 H        -0.6912273491        1.9546317886      -11.0512916237
 H        -1.4799970472        1.7198618775      -13.4111368733
 H        -3.0962112616        2.7251272972      -12.9769594405
 H        -3.4973215128       -2.1864099692       -9.8651204289
 H        -4.4146744817       -0.6207195461       -9.7157492938
 H        -3.7842220882       -0.1272312560       -7.4678721523
 H        -2.7602972491       -1.4682009577       -7.4022408337
 H        -3.5684489572       -4.6458574917       -3.9146581989
 H        -2.4325404738       -3.3682373940       -4.5900499053
 H        -1.3160638145       -5.4998714713       -4.7121683581
 H        -2.0079056837       -5.4267672499       -6.4012707824
 H        -4.8940770735       -8.5980420216       -6.2649960964
 H        -4.1172823181      -10.2624286057       -6.5845660647
 H        -5.6873258258      -10.1643729655       -8.2889949810
 H        -4.3517944133       -9.5841740333       -9.1758185682
 H        -9.0900270251       -6.6605861962       -9.7172560162
 H        -8.6124440836       -6.5354136044      -11.3712575161
 H        -9.8084264263       -4.4169555112      -10.9761474867
 H        -8.0764341070       -4.0040990920      -10.7655727365
 H       -11.4188623983       -6.3492161438       -6.7243318882
 H       -10.9592339281       -5.2481008351       -5.2994666659
 H       -11.0735079172       -7.4457840593       -4.5699717729
 H        -9.3257642230       -7.0475649512       -4.5596654799
 H       -10.1606006673      -12.4306989337       -3.5978229683
 H       -11.0811425879      -12.5814148935       -5.2251407643
 H       -12.5160290264      -13.3468197069       -3.1677782596
 H       -13.0536281310      -11.6945430333       -3.6926669629
 H       -13.6047408040       -8.3863839939       -0.6994578996
 H       -14.8238730037       -9.2841600274       -1.4811969611
 H       -13.2575608313       -9.4979263164       -2.0768689729
 H       -14.8030920504      -12.3940446761       -2.2172403655
 H       -15.2613978251      -12.5858605791       -0.5825128625
 H       -14.3484710986      -13.7391505809       -1.3857538508
 H       -12.8146997259      -12.9193828618        1.2123579476
 H       -11.4086700967      -12.7043340925        0.2671639393
 H       -12.5556899433      -13.8883795793       -0.2660095834
 H        -8.8302188318      -11.8231643925       -5.9476764990
 H        -7.9688130297      -10.3911775624       -6.6348502459
 H        -9.5553922921      -10.7341456517       -7.1941803925
 H        -8.8253021052       -8.9694556453       -3.3708811134
 H        -7.6001691186       -9.5600179363       -4.4509563773
 H        -8.3242731910      -10.6565870974       -3.5295471351
 H       -10.3812068538       -2.4148468139       -7.1298333949
 H       -11.6858768166       -3.6201065353       -6.8181115499
 H       -11.7162211642       -2.6787717941       -8.2436946944
 H       -11.8799929589       -4.3122138437       -9.6018048725
 H       -12.2088394516       -5.7173087701       -8.5547049529
 H       -10.9772975596       -5.6676000743       -9.8324093555
 H        -5.5855258959       -9.4499108125      -11.0268564929
 H        -4.8467979884       -7.8450286211      -11.0942359425
 H        -6.3891667296       -8.2238549157      -11.9496550642
 H        -7.7277132075       -9.9204713573       -9.7640925945
 H        -8.6026866966       -8.6488983988      -10.5548253998
 H        -8.5250499929       -8.6282610340       -8.7758775860
 H        -0.1345521542       -7.7667630742       -5.3401002035
 H        -0.5464332642       -7.0893101947       -6.9253719875
 H        -0.4927998108       -8.8197863033       -6.6825388819
 H        -1.5172979590       -9.0765188512       -4.0517139649
 H        -2.1483311722      -10.3179011185       -5.2660471688
 H        -3.2373913220       -9.3299085785       -4.3332956103
 H        -4.2410050399       -1.7705430931       -3.8629583128
 H        -4.6403661774       -0.5252655265       -5.1614725086
 H        -3.2103028552       -1.2886303524       -5.3132473010
 H        -6.8299077790       -3.7460922529       -5.5800413021
 H        -6.9534752837       -1.9471258711       -5.4587083008
 H        -6.1803429066       -3.0041245861       -4.2365075723
 H        -3.0950218803       -1.5354188115      -13.4021821372
 H        -4.1159290469       -1.8436954533      -11.9398209440
 H        -2.5071418742       -2.6455802544      -12.1564175372
 H        -0.1385347175        0.1539653201      -11.5936553860
 H        -0.6091249761       -0.3039317346      -13.1977606029
 H        -0.3424999908       -1.5436659726      -11.9791589484
 H         0.9305908127        3.0418379877       -9.9852571640
 H        -0.6058584643        3.6571172053       -9.1764446848
 H         1.0885440183        4.4519977296       -9.0546211300
 H        -1.3566964277        5.8227900451       -9.8837242288
 H        -0.9982318794        6.6142171052      -11.4154048355
 H         0.1726175113        6.7133596607      -10.0777685860
 H         7.4386409760        2.5896959537      -11.8196317253
 H         7.4397422918        2.9468997910      -10.0465506872
 H         8.6217791602        3.6900665194      -11.0372055227
 H         8.1712224912        5.6969405865      -10.7997610177
 H         6.8936708979        5.6636850150       -9.7082179825
 H         6.5920634953        6.6360811561      -11.1658776235
 H         7.8816282354        2.2736473348      -18.2108338514
 H         6.8529538464        2.8063418767      -19.5471234438
 H         6.2050450613        1.7762963266      -18.3130650939
 H         6.5839652622        6.2221538387      -17.6459644555
 H         6.7893543281        5.3751248875      -19.1314952532
 H         8.1596147562        5.2967306302      -17.8884262518
 H        -1.5805852078        2.2011722591      -17.6437136852
 H        -0.8804444668        2.6366681029      -16.0603916281
 H         0.0795924970        1.6446394818      -17.2265651590
 H         0.4070699606        3.2454664605      -19.7404759540
 H        -0.0441165584        4.9757842197      -19.5780965484
 H        -1.2167239604        3.8378078140      -19.5777978270
 H        -1.7731614599       10.5605770915      -16.3212427975
 H        -0.1393245265       11.2211745563      -16.0294553365
 H        -1.3338807450       11.1387151455      -14.7345006894
 H         1.6271226254        8.8569945801      -14.2153650284
 H         0.7150449254       10.4665994377      -13.7359756358
 H         1.7752688357       10.3595749460      -15.1709328083
 Na       -0.3209091041        5.4133352382      -14.5070341380
 Na       -6.3461770520       -4.6711622393       -8.1218889321
