232

 C        -1.6581019692        9.5334183581      -12.7827861741
 C        -1.0946924914        8.7087787919      -13.8794647912
 O        -1.1982618095        7.4781760648      -13.8372685147
 C        -0.2826945285        9.4044015386      -15.0564683612
 C        -0.1273088521        8.1949137794      -16.1506337011
 O         0.9827296114        7.7023421325      -16.2391253055
 C        -1.3991396700        7.6699415564      -17.0860651786
 C        -0.8805692417        6.4911046857      -17.8728184457
 C        -0.9716033338        5.1134603591      -17.1632527841
 O        -1.4973302589        5.0173033815      -16.1090316237
 C        -0.2160991149        3.8792823279      -17.8115709771
 C         1.2717697453        4.0175843821      -17.0716079555
 O         1.2036304949        4.1751014164      -15.8686650960
 C         2.4315757710        4.0242015933      -18.0317502046
 C         3.7422095725        3.7576632509      -17.3193907213
 C         4.8943108791        4.2137208915      -18.2375514176
 O         4.6399594339        4.7954714141      -19.3031333180
 C         6.3062310869        4.0524174482      -17.7336483932
 C         6.4661033693        3.7377375389      -16.2592024543
 O         5.7694330803        2.9400587833      -15.6653244519
 C         7.4766704272        4.6011189508      -15.5388471728
 C         7.5881183266        4.0875986844      -14.0708631776
 C         6.8795080945        4.9489775216      -13.0708426669
 O         6.1294860792        5.8385831374      -13.4196481368
 C         6.8213118148        4.3967126500      -11.6251070659
 C         5.2292088505        3.9850788879      -11.3835876845
 O         4.9901192611        2.8968621859      -10.8305275264
 C         4.1159538853        4.8644484915      -11.8372935301
 C         2.7860127781        4.5368786495      -11.0333426047
 C         1.4511597853        4.9141094591      -11.7921025256
 O         1.4953454952        5.1531927279      -12.9700322332
 C         0.1177011436        4.7260961564      -10.9444405065
 C        -0.9695183303        4.0136301510      -11.8257208833
 O        -1.4711881482        4.4632051410      -12.8468679484
 C        -1.4946943751        2.6801462634      -11.3992751584
 C        -2.2569334537        2.0604207129      -12.4763619012
 C        -3.0080065892        0.7988169949      -12.1439562775
 O        -4.2513978705        0.7503688074      -12.1489701281
 C        -2.1955437315       -0.4803456447      -11.7279058132
 C        -2.2756634915       -0.6009578851      -10.0976181653
 O        -1.3432661204       -0.1391820114       -9.4791829552
 C        -3.5752559715       -1.2822512049       -9.4424767590
 C        -3.7244998616       -1.0248481091       -7.8787610731
 C        -4.9258873821       -1.9723451821       -7.3170523337
 O        -5.7969429036       -2.3996506520       -8.1062109436
 C        -4.9100932954       -2.4853953859       -5.7498385046
 C        -4.1420027884       -3.9294709353       -5.9013922673
 O        -4.3323555831       -4.6403632638       -6.8667384472
 C        -3.0515499606       -4.3224072758       -4.8660007544
 C        -2.1342587802       -5.4564559025       -5.2813900645
 C        -2.8129707737       -6.8214511487       -5.1070033015
 O        -3.7108531948       -6.9046996917       -4.2915496142
 C        -2.1453863999       -8.1761411176       -5.7488157127
 C        -2.9965869155       -8.4009123405       -7.0884162617
 O        -2.7262321288       -7.7469263837       -8.0827856766
 C        -4.2320356274       -9.2807727418       -7.0220145276
 C        -5.0185172275       -9.2985720490       -8.2913196075
 C        -5.7529996802       -7.9505124006       -8.6398878775
 O        -5.6976598316       -7.0233617255       -7.8151828934
 C        -6.6190891235       -7.9148282809       -9.8966157026
 C        -6.9825104886       -6.4312294224      -10.2135884638
 O        -6.0967991239       -5.6499100609      -10.2332347003
 C        -8.4840607834       -6.0929607671      -10.4658680069
 C        -8.7816844587       -4.6412661399      -10.5439796816
 C        -9.0463043045       -4.0524730300       -9.0834112828
 O        -8.2048313954       -3.3747040679       -8.5261632184
 C       -10.3281527467       -4.4400219773       -8.2157306926
 C        -9.6999635606       -5.3523214713       -7.0342342533
 O        -8.5176168391       -5.2565092766       -6.7533775104
 C       -10.7092581934       -6.0556273908       -6.0811570229
 C       -10.1278590032       -7.1868265066       -5.2121841788
 C        -9.7309545404       -8.5094840386       -5.9719003297
 O        -9.6528323210       -8.5558067496       -7.1848091239
 C        -9.5793370667       -9.8041431080       -5.2057150931
 C       -11.0132040857      -10.3400848722       -4.6251200021
 O       -11.9299314542       -9.5821857499       -4.5272864330
 C       -11.1029820214      -11.7946699948       -4.1792881162
 C       -12.3732149433      -12.0781713132       -3.4026740333
 C       -12.1648964078      -11.6428622883       -1.9368687052
 O       -11.1869777568      -10.9964667482       -1.6259601568
 C       -13.1051324474      -11.9810993921       -0.8671112207
 C       -13.3316750954      -10.6053024281       -0.1772215613
 O       -13.1693216661      -10.5315094032        1.0336655777
 C       -13.7147883382       -9.3408165605       -0.9904453889
 C       -14.4739661414      -12.6238835710       -1.3453537593
 C       -12.3803061378      -12.8603608320        0.1499208992
 C        -9.1620683352      -10.9145677907       -6.2790866419
 C        -8.5392368214       -9.7336032502       -4.0015494289
 C       -10.9814782371       -3.2814632648       -7.4140615787
 C       -11.3907641587       -5.1012850817       -9.0369583576
 C        -5.7958704003       -8.5286328093      -11.1398997239
 C        -7.7730644633       -8.9686812977       -9.6221133550
 C        -0.7097265316       -7.7834534013       -6.2276676605
 C        -2.1694951490       -9.3725917862       -4.8429880629
 C        -4.2231595708       -1.4602116855       -4.8758096175
 C        -6.3515474712       -2.7473356691       -5.3074409509
 C        -3.1025103205       -1.6478574087      -12.3858594590
 C        -0.7550414835       -0.7451106173      -12.2033858550
 C         0.4265450997        3.9442716241       -9.6328426955
 C        -0.6378754275        6.0745048665      -10.6054300813
 C         7.6703456730        3.1356481643      -11.2521528854
 C         7.0808076901        5.5174491154      -10.5191745469
 C         6.9822787736        2.9061653956      -18.4348612627
 C         7.0779285004        5.3708214755      -18.1033718306
 C        -0.7159841541        2.4898271836      -17.3779304013
 C        -0.2155334627        3.8843215902      -19.4225592684
 C        -1.1220657180       10.6175724768      -15.6900595262
 C         1.1569516835        9.7386648151      -14.5667326596
 H        -1.4533310127        9.2298790399      -11.7398828058
 H        -2.7133133233        9.5167783597      -12.9058544550
 H        -1.3624532482       10.5478838295      -12.7935160070
 H        -1.5396251953        8.5670585615      -17.7138852984
 H        -2.2364327951        7.3517727086      -16.3596269221
 H         0.0977347522        6.7030335695      -18.2653199171
 H        -1.4715326123        6.4606664432      -18.7742928053
 H         2.2627046711        4.9248709726      -18.6178348180
 H         2.2802539838        3.2279316910      -18.7787265986
 H         3.9197976882        2.6914473792      -16.9945935902
 H         3.8210155586        4.3878617410      -16.4114422170
 H         7.1088991655        5.6053562553      -15.5788521220
 H         8.3881907156        4.5297770353      -16.0360286165
 H         8.6678192921        4.1065881164      -13.8179167845
 H         7.1448098904        3.0850779528      -14.1209977028
 H         3.8616051202        4.6992224596      -12.8897387635
 H         4.3976033398        5.9176181829      -11.6686976981
 H         2.9756227969        4.9923623046      -10.0669338269
 H         2.8832034714        3.4487411328      -10.8594881291
 H        -2.1986146026        2.7920143028      -10.5130884709
 H        -0.6472020527        2.2215168111      -10.9512292299
 H        -1.6464958793        1.7036372835      -13.2357522961
 H        -3.0902689057        2.7687188966      -12.6947142337
 H        -3.4706675339       -2.3429465303       -9.7834289369
 H        -4.4650491466       -0.8708299469       -9.8978832988
 H        -3.8451567877        0.1375189872       -7.6761862185
 H        -2.8213367978       -1.3742864857       -7.4872499312
 H        -3.5312647443       -4.5272826515       -3.9029423727
 H        -2.4236364821       -3.3950703830       -4.8165064630
 H        -1.2597132362       -5.4664842551       -4.6394123761
 H        -1.9127583699       -5.4594250483       -6.4013365129
 H        -4.9044232269       -8.8622337724       -6.2274883191
 H        -4.0446260613      -10.2590590958       -6.7274399115
 H        -5.6804179872      -10.1290949086       -8.2517845312
 H        -4.3494713297       -9.4807229884       -9.1331148681
 H        -9.0157580027       -6.6576488365       -9.6926256635
 H        -8.6005329934       -6.5147457355      -11.4091571511
 H        -9.6333892841       -4.4582910613      -11.1351162247
 H        -7.9581618826       -4.0754773098      -10.9577471619
 H       -11.5948701502       -6.3385154809       -6.6182830397
 H       -10.8731919602       -5.2206331645       -5.3876822996
 H       -10.8874065011       -7.4340154566       -4.5031055067
 H        -9.2155599882       -6.9454678633       -4.6796195700
 H       -10.3016721949      -12.0011344420       -3.4063962535
 H       -10.9668012852      -12.4863454257       -5.0465260880
 H       -12.5544571911      -13.1794427337       -3.4159219230
 H       -13.2330905176      -11.5329476237       -3.8464217572
 H       -13.4758594544       -8.4054939860       -0.4775904763
 H       -14.8326597996       -9.2813293421       -1.0492097517
 H       -13.4346168536       -9.2675573534       -2.0107127880
 H       -14.7616671434      -12.2818286113       -2.3908895264
 H       -15.2340873857      -12.3808089104       -0.6581490983
 H       -14.4530548508      -13.6654657840       -1.4330013611
 H       -12.8974336838      -12.8234465330        1.0750427671
 H       -11.4650432526      -12.3943817572        0.4216395952
 H       -12.2620995242      -13.9287142887       -0.2446570617
 H        -9.3794881716      -11.8746268129       -5.7534201298
 H        -8.1519594719      -10.8974716959       -6.6213422153
 H        -9.7070775100      -10.7692632388       -7.2182589442
 H        -8.7092647276       -8.9875393591       -3.2905385316
 H        -7.5308151876       -9.6117409291       -4.2901891190
 H        -8.4603464716      -10.7425661788       -3.5132818099
 H       -10.2023962116       -2.5474308651       -7.1926941789
 H       -11.4707201024       -3.5961230548       -6.4892041291
 H       -11.7679171991       -2.8876149398       -7.9723157636
 H       -11.9573774539       -4.3376631001       -9.6277653091
 H       -12.0932831273       -5.6879981392       -8.4171793215
 H       -10.9377269513       -5.9012955673       -9.7553030081
 H        -5.9886867988       -9.6235830512      -11.1713742800
 H        -4.7164056815       -8.3601048179      -11.0884962249
 H        -6.1869071861       -8.1896925054      -12.0770567989
 H        -7.3450380000       -9.9267264823       -9.5007431792
 H        -8.4341341803       -9.0167324456      -10.5779325396
 H        -8.3206125555       -8.6824710663       -8.7603874080
 H        -0.1050078090       -7.2461974651       -5.4862419689
 H        -0.8634062985       -7.1375024629       -7.0917351622
 H        -0.3932366003       -8.7394258295       -6.5931055501
 H        -1.4745000663       -9.3392161393       -4.0294084440
 H        -2.1587633460      -10.2742451259       -5.4396073012
 H        -3.1992648408       -9.3613775844       -4.4604069657
 H        -4.2766001629       -1.8013283511       -3.8335354181
 H        -4.7629798302       -0.5095895068       -5.0361583152
 H        -3.2587129933       -1.1685258453       -5.2582724997
 H        -6.8052228160       -3.6275998439       -5.7849572411
 H        -6.9642194037       -1.9156279815       -5.4982464859
 H        -6.4338245054       -3.0516064357       -4.2595521361
 H        -2.9893884933       -1.5671171887      -13.4960674519
 H        -4.1645842622       -1.6664941390      -12.1037385636
 H        -2.6456891766       -2.5878345716      -12.0812944161
 H        -0.0961879897       -0.6180497684      -11.3881802656
 H        -0.3917059337       -0.1423008491      -13.0042471051
 H        -0.7616687776       -1.7808384443      -12.4940230187
 H         0.8284898241        2.9068027013       -9.7723307535
 H        -0.4277871581        3.9532360571       -9.0399092857
 H         1.1960750070        4.4983138186       -9.0822000404
 H        -1.5673503267        5.8546085374      -10.1368200990
 H        -0.8857196852        6.6489905028      -11.4832415760
 H        -0.0248232582        6.7745889450       -9.9663737305
 H         7.6099048788        2.3673825415      -12.0286924802
 H         7.4089473099        2.6812530187      -10.2845295586
 H         8.6750760627        3.4788010171      -11.1380891931
 H         8.2078049152        5.6663447417      -10.4118443381
 H         6.8134201373        5.2394464567       -9.4816367426
 H         6.5270148288        6.3407466214      -10.7627956031
 H         7.9810201900        2.8274536539      -17.9947603573
 H         7.1500855018        3.1138181756      -19.4956080725
 H         6.5814425577        1.8918179030      -18.3434674360
 H         6.6312468908        6.1568804013      -17.4572029405
 H         6.8590959293        5.6365015151      -19.1293252545
 H         8.1256103459        5.3397131137      -17.9329612814
 H        -1.6596520007        2.2573038419      -17.8752780300
 H        -0.7056624208        2.4996918510      -16.2560518464
 H        -0.0229132737        1.7047008766      -17.6792644079
 H         0.4039483310        3.1431974026      -19.8013447907
 H         0.0675113091        4.8786963640      -19.7741841218
 H        -1.1872422637        3.7083144863      -19.8439902656
 H        -1.9648555912       10.1513971193      -16.2444025156
 H        -0.5095740514       11.1717300135      -16.4154234435
 H        -1.6497296858       11.2909549415      -15.0045244223
 H         1.7352642594        8.8128437243      -14.6556683808
 H         1.0905221719       10.3693965182      -13.6716565694
 H         1.5563875695       10.4026871815      -15.3655831710
 Na       -0.1717629945        5.5149967545      -14.5431393271
 Na       -6.2965805313       -4.6732883559       -8.0230048772
