232

 C        -2.0166680000        9.6531863032      -12.9826194891
 C        -1.2087287486        8.7870924012      -13.9269929502
 O        -0.8224502127        7.7278139422      -13.4848020865
 C        -0.8368837057        9.2355185952      -15.3648692798
 C        -0.7640215249        7.9514328426      -16.2061068599
 O         0.1769220568        7.2076887348      -16.2477584588
 C        -2.0216775412        7.4898677444      -16.9227241205
 C        -1.7228008418        6.2820101525      -17.8579120453
 C        -1.1189029096        5.0605589777      -17.2401637095
 O        -1.4305942767        4.8339047635      -16.0524567687
 C        -0.2115454503        4.2481470406      -18.1290719066
 C         1.3226378062        4.2799480128      -17.4081544352
 O         1.4482210370        4.2759529680      -16.2022212551
 C         2.5219565404        4.0900540155      -18.3524850577
 C         3.8244342451        4.1234067299      -17.5385407834
 C         5.0021351910        4.5720061494      -18.4318432830
 O         4.9015764471        4.8736769264      -19.5744461616
 C         6.5816731292        4.5782723586      -17.8465223793
 C         6.8350080170        4.0813264267      -16.3293022784
 O         6.2541813520        3.0659151978      -15.9986031168
 C         7.7651428160        4.8758493521      -15.3631301620
 C         8.0769545275        4.1302657210      -14.0236833224
 C         6.8589152455        4.3733181011      -13.0593637059
 O         6.1415027627        5.3640041761      -13.2307871655
 C         6.8270297978        3.6285098766      -11.6276775404
 C         5.3848378593        3.2035552746      -11.1413199092
 O         5.2984976003        2.2337151949      -10.4542023751
 C         4.1460787108        4.0361722682      -11.5706478150
 C         2.7938057197        3.8649343016      -10.7280460738
 C         1.6908295802        4.5867879057      -11.4055693285
 O         1.8595464610        5.0223651411      -12.5493433419
 C         0.2722044439        4.5687587970      -10.7426486425
 C        -0.6610964451        3.7957603961      -11.7529270718
 O        -0.7699429117        4.0480052163      -12.9416509714
 C        -1.6474224569        2.6556890703      -11.1168628906
 C        -2.3817772578        1.9549636340      -12.2962558270
 C        -3.1850942074        0.6865761887      -11.8042400966
 O        -4.3555562820        0.6374551905      -11.6189802534
 C        -2.4321245441       -0.7368163718      -11.5830321813
 C        -2.4693537621       -0.8877542265      -10.0423919056
 O        -1.6073322093       -0.2846874558       -9.4218101015
 C        -3.7890137510       -1.3895995691       -9.4588565862
 C        -3.9560279878       -1.2927308567       -7.9625624260
 C        -5.0881700593       -2.1530010581       -7.3490221265
 O        -5.8913763575       -2.8256809989       -7.9134111161
 C        -4.8844979836       -2.3255874893       -5.8508694951
 C        -4.2868715846       -3.8287042463       -5.6929727240
 O        -4.7941950440       -4.7941036479       -6.2482215421
 C        -2.8991611225       -3.9169965257       -5.0042015806
 C        -2.0526253195       -5.0844500671       -5.4487941995
 C        -2.5161199232       -6.4703197256       -4.8747143608
 O        -3.3831844870       -6.4426455316       -4.0520891006
 C        -2.0201780766       -7.7256725242       -5.6739943393
 C        -2.9664782153       -7.8358770160       -6.9072700404
 O        -2.8859960492       -7.1380684390       -7.8921432567
 C        -4.0206339441       -8.9575665998       -6.9334305043
 C        -4.7479369837       -9.0030533167       -8.2960616007
 C        -5.7077328995       -7.8341932449       -8.6458928969
 O        -6.0419912703       -7.0626665587       -7.7845350993
 C        -6.3514818201       -7.9606429681      -10.0611220442
 C        -7.1119369106       -6.5846287636      -10.1929195071
 O        -6.4304639639       -5.5774308271      -10.0795779510
 C        -8.6305391663       -6.3945054668      -10.8290172014
 C        -9.1315320509       -4.9477874332      -10.8269251529
 C        -9.2133893926       -4.3229554886       -9.4431693420
 O        -8.3035282143       -3.5365347956       -9.1273327467
 C       -10.2969297558       -4.6661580017       -8.4202206549
 C        -9.6876228813       -5.4027467382       -7.1351475420
 O        -8.4982919536       -5.5628023848       -7.0447615578
 C       -10.6126000282       -5.8704222413       -5.9863198945
 C        -9.9619065621       -7.0306594310       -5.2359076649
 C        -9.7523052200       -8.4026914557       -6.0506578795
 O        -9.5530917107       -8.3927762662       -7.2435879257
 C        -9.6949088221       -9.8392737840       -5.1927235244
 C       -11.1974663815      -10.0108250668       -4.6724863008
 O       -11.7043837756       -9.0704204128       -4.0664928422
 C       -11.9503582843      -11.4019329248       -4.6076215450
 C       -12.8774422028      -11.2988487373       -3.4182881725
 C       -12.1806014698      -11.2861107605       -2.0111502528
 O       -10.9968904748      -11.2579639884       -1.8770498838
 C       -13.1003693152      -11.6887360571       -0.7545947140
 C       -13.1453471262      -10.5415293790        0.3624708340
 O       -12.9485609761      -10.7963228395        1.4988449478
 C       -13.7039224527       -9.2031849824       -0.0637730645
 C       -14.5314509245      -11.9729622559       -1.1956257693
 C       -12.4148423762      -12.8784566303       -0.0511797470
 C        -9.2493881783      -11.0508818889       -6.1020458811
 C        -8.7410430517       -9.7922794768       -4.0267445821
 C       -10.9165596732       -3.3586376797       -7.8003362607
 C       -11.3334622414       -5.5483002876       -9.0420408008
 C        -5.2765113599       -7.9668667201      -11.1891556610
 C        -7.2459035079       -9.1840642460      -10.2363211414
 C        -0.5272590238       -7.6892447053       -6.1904932271
 C        -2.2269266505       -9.0228121964       -4.7869253597
 C        -4.0579089222       -1.2324894067       -5.0269376463
 C        -6.2249423287       -2.4025452832       -5.0395352959
 C        -3.3406733170       -1.7529906507      -12.3727769982
 C        -0.8690299379       -0.7554854542      -12.1663748366
 C         0.1291700331        4.0520066195       -9.3028731308
 C        -0.1982997527        6.0705854149      -10.6732782047
 C         7.7210864070        2.4173090893      -11.6222888011
 C         7.3958543210        4.7131041708      -10.6426005465
 C         7.3273617899        3.4571130941      -18.7313933756
 C         7.2283641697        5.9405054933      -18.1510666267
 C        -0.4741316180        2.6712681013      -18.0093866127
 C        -0.2320533974        4.6544136820      -19.5618435285
 C        -1.7042471719       10.3635915854      -15.9807596130
 C         0.6575837838        9.6871121284      -15.2794092211
 H        -2.1473006324        9.0798446464      -12.1117351839
 H        -3.0046412645        9.8437261095      -13.3770055846
 H        -1.7414705779       10.6718815933      -12.7453678708
 H        -2.4670530657        8.4031607846      -17.5298186386
 H        -2.7593062459        7.1779234937      -16.1335504211
 H        -0.9958836132        6.6782684147      -18.5235249285
 H        -2.6367571478        6.1507417011      -18.4037213938
 H         2.6159105705        4.8034567743      -19.1619266277
 H         2.4339669421        3.1139153650      -18.8541149125
 H         3.9415205320        3.0689027721      -17.2053481219
 H         3.8120093663        4.8153090037      -16.6497660812
 H         7.1341486351        5.6832298078      -15.0611963069
 H         8.5994938031        5.2659546461      -15.8517161267
 H         8.9417917435        4.6460401414      -13.5714909323
 H         8.2445403785        3.0514741521      -14.2680846399
 H         3.8433022096        3.6784258432      -12.5213581290
 H         4.4397505628        5.1489001841      -11.6628394628
 H         3.0244039135        4.0773686966       -9.7380597525
 H         2.5880575129        2.7534402297      -10.6484339699
 H        -2.2936201984        3.0219397312      -10.3085306818
 H        -0.9494704181        1.9386997559      -10.6408550706
 H        -1.7514620312        1.6444041884      -13.1591757878
 H        -3.1051844797        2.6031311214      -12.7229022928
 H        -3.7935140036       -2.3874293562       -9.7761281940
 H        -4.7188528623       -0.9495285353       -9.9116589134
 H        -4.1142103372       -0.1967410720       -7.6725153428
 H        -2.8982179725       -1.6870366694       -7.4281663215
 H        -3.1529647824       -4.0851832378       -3.8774366339
 H        -2.3622288079       -3.0072397543       -5.0487743854
 H        -0.9965248799       -4.9439632205       -5.0310264398
 H        -1.9408061924       -5.2637067075       -6.5004396137
 H        -4.5968751046       -8.8317376551       -6.1328412894
 H        -3.5617810624       -9.8928499129       -6.7461030212
 H        -5.4752328479       -9.8811651320       -8.3574916837
 H        -3.9778175758       -9.0964774134       -8.9869228273
 H        -9.2959292672       -7.0005520211      -10.1792674824
 H        -8.6954152752       -6.8091942256      -11.8354821454
 H       -10.0678725697       -4.9791638421      -11.3121235848
 H        -8.5620162089       -4.2533456436      -11.3820042269
 H       -11.6484646445       -5.9350490184       -6.3108306427
 H       -10.6483613650       -4.9925601948       -5.3394184814
 H       -10.6909671365       -7.3498769482       -4.4998242165
 H        -9.0579707665       -6.7070896592       -4.7647030403
 H       -11.2910543578      -12.2598593447       -4.3985670810
 H       -12.5274274474      -11.7617028885       -5.5213561813
 H       -13.5376524357      -12.1517956628       -3.4292782888
 H       -13.6141212002      -10.4679760272       -3.6357810365
 H       -13.3536412304       -8.3193322701        0.4114743205
 H       -14.7789916092       -9.2517679990        0.1601092290
 H       -13.7619970072       -9.0048792212       -1.1478460001
 H       -14.9465020100      -11.4004373328       -1.9305833831
 H       -15.1628942297      -11.9281723735       -0.3021965805
 H       -14.4676116349      -13.0327858369       -1.4652992854
 H       -12.7847513208      -13.0222537466        0.9762078340
 H       -11.3284155139      -12.6671128552       -0.0370005192
 H       -12.6145602003      -13.7926183212       -0.5482700882
 H        -8.6222033454      -11.6927011411       -5.4753183479
 H        -8.5433862432      -10.6779519795       -6.8385613057
 H       -10.0470819784      -11.6878723485       -6.5919560424
 H        -8.9161628202       -9.0900737083       -3.2208032337
 H        -7.7708481365       -9.4792536093       -4.3998832291
 H        -8.6520275265      -10.6919140913       -3.5214674393
 H       -10.1181876993       -2.8527183503       -7.3268327785
 H       -11.6494853536       -3.4573838076       -7.0554918940
 H       -11.3121895083       -2.8602561790       -8.7148490253
 H       -12.0841049688       -4.9675097739       -9.6722025943
 H       -11.9104958085       -6.0536612035       -8.1853710482
 H       -10.9474422236       -6.4272180971       -9.5602408975
 H        -4.5907902119       -8.8164439735      -11.1275060367
 H        -4.6966486471       -7.0678396418      -11.1598753004
 H        -5.7432429413       -8.0641523350      -12.1696206688
 H        -6.7146708329      -10.1378607060      -10.0830011903
 H        -7.5347257481       -9.0850420971      -11.2129805254
 H        -8.1363922180       -9.2214755266       -9.5290672961
 H         0.1264532451       -7.4880247623       -5.3678479553
 H        -0.5399195236       -6.8413498687       -6.8638331910
 H        -0.2835935996       -8.6349900620       -6.7405040623
 H        -1.4739719305       -8.8551128779       -4.0174185780
 H        -1.9096963374       -9.9411708717       -5.3022601041
 H        -3.2074712449       -9.1571654679       -4.3011464762
 H        -4.2220752022       -1.3297991690       -3.9479048160
 H        -4.4660386740       -0.2428844761       -5.2607100404
 H        -2.9754262113       -1.3658379255       -5.2431108006
 H        -6.9238453534       -3.0703163113       -5.5023703422
 H        -6.7878369347       -1.4407318910       -4.9509305636
 H        -5.9990412595       -2.7151891298       -4.0235112686
 H        -3.3087194324       -1.5599654007      -13.4658866396
 H        -4.3414128607       -1.6932081550      -11.9723077403
 H        -2.9085552065       -2.7849847216      -12.2401498648
 H        -0.7474196112       -1.7076525771      -12.6566214700
 H        -0.2056573841       -0.7065967290      -11.3379825548
 H        -0.6019806034        0.0376637531      -12.8307199546
 H         0.0814428305        2.9917359420       -9.4338076825
 H        -0.8259177402        4.3265905870       -8.8343616172
 H         0.8916291977        4.3994753917       -8.6562543215
 H        -1.1483535338        6.2119659707      -10.1042391939
 H        -0.3745843643        6.5009488460      -11.6738604771
 H         0.5991870088        6.6760024919      -10.3301361895
 H         7.4099218548        1.8270237773      -12.4508118587
 H         7.4605731618        1.8913483105      -10.7340407780
 H         8.8136877872        2.6492163629      -11.7888104307
 H         8.4006695982        4.9974050138      -10.8192414567
 H         7.1628709029        4.3374472295       -9.6484343241
 H         6.7597585793        5.7053398147      -10.7631094933
 H         8.4075867227        3.4067776655      -18.5768931333
 H         7.2228018168        3.6060520761      -19.8469722448
 H         6.9050172796        2.4822515629      -18.4861111386
 H         6.7419839071        6.6503521529      -17.5804361524
 H         7.2171814848        6.0998340117      -19.2510364215
 H         8.2806544103        5.8606701463      -17.9172394074
 H        -1.3726702962        2.4086197371      -18.6515442583
 H        -0.6035733618        2.3330518084      -16.9755906306
 H         0.3544584325        2.1413903342      -18.5194414971
 H         0.3900153192        3.9873901199      -20.1510999199
 H         0.1517127697        5.5973341973      -19.6671542653
 H        -1.2343481937        4.5230517220      -19.9352797207
 H        -2.7350093505       10.1219503290      -16.2285869816
 H        -1.2598617295       10.8689786014      -16.8701345705
 H        -1.7776579482       11.1868950665      -15.2414354607
 H         1.0394213429        8.9046822278      -14.6540065026
 H         0.7731304362       10.6787988778      -14.7894143605
 H         1.0127682286        9.8084572227      -16.3080681027
 Na        0.2422782407        5.4304933099      -14.4358189417
 Na       -6.5077449191       -4.8487747053       -7.8337849013
