232

 C        -2.1132300636        9.6539017004      -13.0325075666
 C        -1.1972710053        8.7701283568      -13.9471531798
 O        -0.8132097201        7.6671606365      -13.6094203232
 C        -0.8570257859        9.2844728026      -15.4113605788
 C        -1.0113181688        7.8739166333      -16.2369438699
 O        -0.0696699987        7.1401311651      -16.0304093782
 C        -2.2924482841        7.4264071787      -17.0566891656
 C        -1.9423320676        6.2206222754      -17.9700304543
 C        -1.0425163750        5.0739664321      -17.2166113429
 O        -1.2386347754        4.7440395955      -16.0243761956
 C        -0.0521082364        4.2532840102      -18.1206793179
 C         1.3141710316        4.2946670696      -17.4728603230
 O         1.5222365484        4.4601676505      -16.3033394233
 C         2.6017556995        4.0594055683      -18.3552448857
 C         3.8980593910        4.3269414533      -17.5000292174
 C         5.1147169896        4.6522070673      -18.3294223421
 O         4.9364396137        4.9016514471      -19.5179770566
 C         6.6260901042        4.6706860005      -17.8043670452
 C         6.6376647296        4.0829881150      -16.3888359776
 O         6.1586187328        2.9720675210      -16.0923967715
 C         7.6000339335        4.8304394523      -15.3631168357
 C         7.9070019755        4.1377670907      -14.0689319394
 C         6.9099980431        4.4455254299      -13.0042770779
 O         5.9488530963        5.1013899497      -13.3300471597
 C         6.9170820872        3.5476764791      -11.6833580756
 C         5.4654817050        3.0955247203      -11.1527559104
 O         5.3885795754        2.1112678061      -10.4477041795
 C         4.2522631100        3.9408873313      -11.6004748241
 C         2.9554270644        3.7470980630      -10.7596188220
 C         1.7445068701        4.4183290716      -11.4164611816
 O         1.7611686220        4.9727529098      -12.5252181582
 C         0.2109801319        4.4137729384      -10.7583972590
 C        -0.6961363608        3.7096080313      -11.7363061769
 O        -0.7244969410        3.9394256431      -12.9152398091
 C        -1.6249782815        2.6334539932      -11.1183985070
 C        -2.3822934135        1.9788648610      -12.2948844194
 C        -3.0687156123        0.7404165814      -11.8555206175
 O        -4.2606766097        0.7990656728      -11.5521808731
 C        -2.4102971774       -0.6082500420      -11.6248669247
 C        -2.5272567596       -0.7822495182      -10.0527592137
 O        -1.6341011902       -0.4178670854       -9.3082402406
 C        -3.8362802829       -1.3818733968       -9.5259877294
 C        -3.8866156240       -1.3231295212       -7.9876271178
 C        -4.9846502732       -2.1402199544       -7.2217986680
 O        -5.7920318713       -2.6983469598       -7.9551166064
 C        -4.9197107496       -2.3723619155       -5.6577399655
 C        -4.1972253565       -3.7431141681       -5.5861237827
 O        -4.7496086064       -4.7821998296       -5.9900296170
 C        -2.8056439463       -3.8141607033       -4.9222349605
 C        -2.0556591818       -4.9556477051       -5.5081428485
 C        -2.5421582793       -6.3663570127       -4.9296841720
 O        -3.2158782479       -6.3770385584       -3.9212596387
 C        -2.0267287678       -7.7102980167       -5.7185049631
 C        -2.9129432215       -7.8493044603       -6.9575829742
 O        -2.8174265648       -7.0834256187       -7.9044195675
 C        -4.0705880608       -8.8777960826       -6.9276723363
 C        -4.7061924795       -9.0389991671       -8.3277710779
 C        -5.7369696024       -7.9145836031       -8.5788399621
 O        -6.0917093926       -7.1233974991       -7.7523532851
 C        -6.3575338104       -7.8717638961      -10.1665293192
 C        -7.1647694452       -6.5965998352      -10.4358689697
 O        -6.6947139205       -5.5339839394       -9.9985536729
 C        -8.6311430732       -6.5929883710      -10.7626152711
 C        -9.1247998107       -5.1583909654      -10.8792554263
 C        -9.1086360230       -4.3673406803       -9.5292119166
 O        -8.3912592967       -3.4291582375       -9.2033550123
 C       -10.3168096794       -4.7632320543       -8.4978144227
 C        -9.6290549830       -5.4464865816       -7.1851244443
 O        -8.3938451713       -5.5297463294       -7.0745401280
 C       -10.5185463803       -5.9081391730       -6.0501460240
 C        -9.8769493419       -7.0274849246       -5.1977301535
 C        -9.7990662152       -8.3551892136       -5.9625792763
 O        -9.6289773403       -8.3070886810       -7.1667517933
 C        -9.7370378852       -9.7859537557       -5.1826377174
 C       -11.1566703031       -9.9697441750       -4.4133568871
 O       -11.7502433953       -9.0080651241       -3.9678276340
 C       -11.8526726307      -11.3302420656       -4.4114188751
 C       -13.0043790827      -11.3406281778       -3.4017722058
 C       -12.3375539149      -11.3594927019       -2.0989576953
 O       -11.0939066957      -11.2389786630       -2.0982217931
 C       -13.1011263280      -11.7152586610       -0.7409129392
 C       -13.1448442754      -10.4947680792        0.3746515900
 O       -12.7894639935      -10.8079037646        1.4763332348
 C       -13.6527974731       -9.0727367212        0.1252281719
 C       -14.5825568125      -11.9961857042       -1.0945609272
 C       -12.4243181556      -12.8908505706       -0.1517453681
 C        -9.4764202026      -10.9996186155       -6.1346467133
 C        -8.8452532298       -9.7524876558       -3.9835333202
 C       -10.9391249555       -3.4508569938       -7.9820225049
 C       -11.5617915954       -5.6086773741       -9.1107343732
 C        -5.1282551871       -7.7722259728      -11.2146081316
 C        -7.1583374502       -9.2131489242      -10.3127140342
 C        -0.5214382472       -7.6500867684       -6.1060133009
 C        -2.2496311070       -8.9283262911       -4.7721577962
 C        -4.1095023954       -1.2109057478       -5.0733639083
 C        -6.3342440715       -2.4088923373       -4.9461069734
 C        -3.3279538248       -1.6019527488      -12.3812301167
 C        -0.9065162859       -0.6682989303      -12.1552504203
 C         0.2146567189        3.8657224521       -9.3248349307
 C        -0.4006932048        5.9475939674      -10.7481177167
 C         7.9117479770        2.3381961635      -11.8332863529
 C         7.4531637527        4.4811354111      -10.5069854917
 C         7.4164820907        3.6372792252      -18.6410465570
 C         7.2435093299        5.9963195075      -18.0756687111
 C        -0.3614481274        2.7157578636      -18.0448120560
 C        -0.0664956599        4.7446250025      -19.5609589562
 C        -1.6949461752       10.4477504687      -15.9091164330
 C         0.6433407872        9.7822967697      -15.4979675019
 H        -2.2333519892        9.2387819514      -12.0440413334
 H        -3.1102433994        9.9880429846      -13.3914320362
 H        -1.6498210602       10.6547280362      -12.9750445813
 H        -2.7090539306        8.2980536989      -17.5671744818
 H        -3.0672284344        7.0172197441      -16.3836342248
 H        -1.3785042456        6.6240174977      -18.8418700677
 H        -2.9447144610        5.8842077032      -18.2823111620
 H         2.7349981894        4.8040711069      -19.1611597302
 H         2.5883336988        3.0966568003      -18.8553813733
 H         4.0168283627        3.4371710240      -16.8735371902
 H         3.7172953150        5.2412427151      -16.8521453944
 H         7.2166848388        5.7961748261      -15.1868092345
 H         8.5569435616        4.9500946557      -15.8891037325
 H         8.9743716995        4.3485770773      -13.8539697455
 H         7.7279915193        3.0667707836      -14.3101679919
 H         3.9332585198        3.7967483013      -12.6720725024
 H         4.5847701849        4.9422242993      -11.4649872711
 H         3.1883354602        4.2077686778       -9.7651673456
 H         2.8451508096        2.7011384415      -10.4595981483
 H        -2.2880058268        3.1129418826      -10.5054678774
 H        -0.9764176823        2.0002166059      -10.4980628898
 H        -1.8718640459        1.7082232344      -13.2346011658
 H        -3.0680382358        2.6526173182      -12.7020778427
 H        -3.9029953248       -2.3869693722       -9.9405445950
 H        -4.7372797441       -0.8838610978       -9.8619449696
 H        -3.9651424823       -0.1893929089       -7.7933783456
 H        -2.9240097792       -1.6925424553       -7.5690057740
 H        -2.9359222381       -3.9873655524       -3.8430577919
 H        -2.2891215107       -2.8356498423       -5.0076352092
 H        -0.9679544439       -4.9453443615       -5.1897074633
 H        -2.0298160955       -5.0648073533       -6.6108944341
 H        -4.7155037098       -8.6285128115       -6.1026788794
 H        -3.6668655832       -9.8007079592       -6.6335720140
 H        -5.2088798754      -10.0297845913       -8.4786344650
 H        -3.8211044829       -8.8832922206       -9.0148183926
 H        -9.2090695135       -7.2510061088      -10.0991261118
 H        -8.6449593477       -7.0695092582      -11.8654111041
 H       -10.0867343103       -5.1703160777      -11.3413949619
 H        -8.5384897808       -4.5800539123      -11.5398625411
 H       -11.5663200743       -5.9802566257       -6.3742291915
 H       -10.5736699596       -4.9622617161       -5.5072121853
 H       -10.4697965171       -7.2166186365       -4.3126862997
 H        -8.8913267877       -6.7474373715       -4.9570344369
 H       -11.2959729008      -12.1843912202       -4.1293151787
 H       -12.0875820495      -11.5224064129       -5.4314066957
 H       -13.7179419959      -12.1758430717       -3.5420210674
 H       -13.6598319006      -10.4728264227       -3.4497173877
 H       -13.1252340830       -8.3916274011        0.8194562659
 H       -14.6761836449       -8.9194476012        0.2967502483
 H       -13.4850773725       -8.6350611713       -0.8733593516
 H       -14.9992049567      -11.2396081927       -1.7745440150
 H       -15.2336902517      -12.0980162672       -0.1961280658
 H       -14.5181398171      -13.0236854932       -1.5652998924
 H       -12.7485891452      -13.0352461606        0.9289762046
 H       -11.3122081142      -12.8037913627       -0.2365348159
 H       -12.7475619352      -13.7924636476       -0.6174391607
 H        -9.2617809244      -11.8566569805       -5.5292377800
 H        -8.4824437852      -10.8045492233       -6.7016158728
 H       -10.2861378428      -11.2565160995       -6.7788754035
 H        -9.0397109270       -8.9059493799       -3.2941354403
 H        -7.8043739418       -9.5780452266       -4.2421014466
 H        -8.9556230644      -10.5689105796       -3.3209103799
 H       -10.1986810145       -2.6995689483       -7.7119167923
 H       -11.4467425584       -3.6445887873       -7.0524310755
 H       -11.6142321237       -3.1876677025       -8.7751465535
 H       -12.3283731857       -4.9820766252       -9.6114605583
 H       -12.0887923928       -6.2691132352       -8.3037593884
 H       -11.1749270397       -6.3869663694       -9.8049016442
 H        -4.6690213317       -8.7101538967      -11.3562464267
 H        -4.3377604158       -7.0272277305      -10.9913630685
 H        -5.5373794211       -7.5266943891      -12.2325222512
 H        -6.4352325651      -10.0760070505      -10.2113606337
 H        -7.6145880653       -9.2140748053      -11.3132065520
 H        -7.8625136456       -9.3580844260       -9.5651124507
 H         0.0116009921       -7.4030855932       -5.1453677825
 H        -0.3495287366       -6.8775382056       -6.9406406807
 H        -0.2367857563       -8.6703789898       -6.4125268543
 H        -1.5337820827       -8.9928718810       -3.9268779301
 H        -2.0436057932       -9.8165581129       -5.3873717842
 H        -3.2499860433       -8.9548303117       -4.3939654324
 H        -3.8377340257       -1.2102979606       -4.0137096005
 H        -4.6271400559       -0.2939412203       -5.2876548270
 H        -3.2178664634       -1.3654070450       -5.6510902448
 H        -7.0005531942       -3.1522935109       -5.3686547514
 H        -6.8304274024       -1.4870903042       -5.1770477755
 H        -6.2747021449       -2.4064036501       -3.8888005934
 H        -3.3532995262       -1.4303783903      -13.4345591065
 H        -4.3669169182       -1.5265281716      -11.9316532938
 H        -2.8980485536       -2.5983170749      -12.2418756360
 H        -0.8093038186       -1.5412053741      -12.7717952837
 H        -0.3162544893       -0.7984033162      -11.2603799061
 H        -0.5146735089        0.1850042513      -12.6208082474
 H         0.5220553433        2.8969603893       -9.4105611832
 H        -0.7673115407        3.8598413342       -8.7849151747
 H         0.9303072957        4.4345007792       -8.7745297136
 H        -1.4349058841        5.9171214691      -10.3579743738
 H        -0.4498152555        6.4130496682      -11.7228606240
 H         0.1791865341        6.6182909349      -10.1496810884
 H         7.6516649626        1.7902344506      -12.7772890719
 H         7.6735528316        1.7079696001      -10.9915275030
 H         8.9074081919        2.6381845667      -11.9521580953
 H         8.4974428047        4.7252331733      -10.7378888782
 H         7.3209628703        3.8134917206       -9.6462202878
 H         7.0404073654        5.4352973972      -10.3363361243
 H         8.4897589136        3.5088924684      -18.3888923730
 H         7.4040522352        3.9027513093      -19.6461972843
 H         6.8946600790        2.6653839564      -18.5606740355
 H         6.8508337457        6.7359524593      -17.4247709158
 H         7.0354682463        6.1536876013      -19.0654632350
 H         8.3652680003        5.8894273970      -17.9981317064
 H        -1.2864312659        2.5435650723      -18.5035102599
 H        -0.4667269572        2.3963787838      -17.0017023627
 H         0.4599199128        2.1070391265      -18.6099978808
 H         0.4721173919        4.1229178082      -20.2603961548
 H         0.4040487807        5.7317565600      -19.5866638774
 H        -1.0688804410        4.7580618725      -19.8355530856
 H        -2.7767282592       10.3428839308      -16.1569212348
 H        -1.2574145430       10.9467103918      -16.7859717533
 H        -1.6112132391       11.2504271995      -15.1497311852
 H         1.1547499849        8.9362964290      -14.9912851317
 H         0.7585878693       10.6209872446      -14.8403635193
 H         0.8564609095       10.0764871045      -16.5260520338
 Na        0.2735132786        5.3408997308      -14.3288630604
 Na       -6.4847971886       -4.8709825361       -7.8588963203
