232

 C        -2.0532246126        9.6944182337      -13.1167645582
 C        -1.2657424769        8.7503262458      -13.9818196304
 O        -0.7921073622        7.7021507175      -13.5903758903
 C        -1.0522745319        9.1401300886      -15.5337005242
 C        -1.1272425684        7.8153234509      -16.2870310431
 O        -0.2033517318        7.0459227416      -16.1304001452
 C        -2.3791074626        7.3689133075      -17.0399810231
 C        -2.1649368503        6.0534130090      -17.9258792222
 C        -1.0759570333        5.1061097864      -17.2250927244
 O        -1.2171429587        4.5097295754      -16.2033838119
 C         0.0972316706        4.4043833277      -18.0771623992
 C         1.5281838704        4.5504604453      -17.3739694820
 O         1.5658426509        4.8998507230      -16.1794326413
 C         2.7304243805        4.2872276445      -18.1574435175
 C         4.0326219966        4.6523775558      -17.4675944557
 C         5.2093379779        4.7952825854      -18.5332776154
 O         5.0076769713        5.0530062308      -19.6793768393
 C         6.6984709268        4.6602969418      -17.8850583693
 C         6.7485523784        4.0833658560      -16.3747877341
 O         6.0492113534        3.1551730904      -16.1033289937
 C         7.5836014444        4.7933209267      -15.3494214013
 C         7.8288839275        3.9003367460      -14.0965344593
 C         6.7795176315        4.1938053069      -13.0263440742
 O         5.8325893084        4.9360089556      -13.3262142661
 C         6.9152623413        3.3388548021      -11.7245516627
 C         5.4413446539        2.9356079428      -11.1585233753
 O         5.4025478909        1.9198158710      -10.5335219408
 C         4.2668417313        3.8383653407      -11.4798054290
 C         2.9677584072        3.5424538450      -10.7647104933
 C         1.8272238573        4.3435724486      -11.4564184828
 O         1.9941772023        4.8567937650      -12.5398191386
 C         0.4161817273        4.2370083309      -10.7585458735
 C        -0.5195074807        3.4237759050      -11.7577514216
 O        -0.5707474195        3.8304911470      -12.9174216312
 C        -1.6194351316        2.3897081991      -11.2111228501
 C        -2.4670131875        1.9667320292      -12.3743315268
 C        -3.3922363519        0.7913963244      -11.7739016629
 O        -4.4854868214        1.0710837109      -11.3717767785
 C        -2.5793090422       -0.5109286295      -11.5660756473
 C        -2.6135980514       -0.8150389826      -10.0283088677
 O        -1.5993229423       -0.6511264949       -9.3975529086
 C        -3.9021430475       -1.3146743403       -9.4266133311
 C        -3.7253896992       -1.2654866841       -7.9000434312
 C        -4.8654616547       -2.0086168256       -7.2043650690
 O        -5.7020237359       -2.5723005496       -7.8688426900
 C        -4.7717355826       -2.2418608614       -5.6485842485
 C        -4.1175005457       -3.6283249303       -5.5179334803
 O        -4.7714041110       -4.6331948202       -5.6665742266
 C        -2.6642634099       -3.7449120480       -4.9502147541
 C        -2.0097272404       -4.9632099217       -5.5622885734
 C        -2.4534316444       -6.2746526569       -4.8359067159
 O        -2.8761776201       -6.2802645151       -3.7250872306
 C        -2.0745063964       -7.7013066024       -5.6278363993
 C        -2.8836327870       -7.7538007787       -6.9811748817
 O        -2.6123192046       -7.0321269900       -7.9402469087
 C        -3.9609605383       -8.8365868697       -7.0005459236
 C        -4.6168842786       -9.0869663687       -8.3992142233
 C        -5.7148737643       -7.9886659093       -8.7368482936
 O        -6.1249976622       -7.2861478449       -7.8348503927
 C        -6.2648855132       -7.8655831054      -10.2302588950
 C        -7.1680150669       -6.5670181422      -10.2387032880
 O        -6.6200802798       -5.4847499859      -10.0639113790
 C        -8.6178333882       -6.7752597124      -10.7599930172
 C        -9.3493601529       -5.4398226462      -10.9498673445
 C        -9.4579698614       -4.5561147172       -9.7085285472
 O        -8.6381152996       -3.6204756774       -9.5906792820
 C       -10.4728590979       -4.9616278458       -8.5288316380
 C        -9.6891144171       -5.4608835365       -7.2498707795
 O        -8.4810330099       -5.4511635007       -7.1082998560
 C       -10.5850646246       -5.9992295873       -6.0393793978
 C        -9.8105094806       -6.9179851743       -5.2245239218
 C        -9.7589179644       -8.3311815060       -5.8767787597
 O        -9.8519079526       -8.3543001059       -7.0789068745
 C        -9.9190763318       -9.6393249902       -5.1307248211
 C       -11.3889182612       -9.6949779477       -4.3767971996
 O       -11.9269054465       -8.8210417108       -3.7356211829
 C       -12.1276914620      -11.0034985346       -4.5724315749
 C       -13.0776762811      -11.3773599185       -3.3900718515
 C       -12.4481067986      -11.2897034751       -1.9644493819
 O       -11.2888236408      -11.0662315020       -1.8384137304
 C       -13.2390931624      -11.6967811082       -0.6886379792
 C       -12.9333575003      -10.5775686213        0.4160417528
 O       -12.4209444633      -10.8345006388        1.4519632460
 C       -13.3905153862       -9.2356757429        0.0333975227
 C       -14.7574322400      -11.8875527431       -0.8151971022
 C       -12.5717613544      -12.9671355194       -0.1822406836
 C        -9.6467777745      -10.7904877588       -6.1892373444
 C        -8.8245125165       -9.6671656199       -3.9830116749
 C       -10.9741999042       -3.5174370968       -8.0543665234
 C       -11.5239830564       -5.9349239492       -9.0348146482
 C        -5.0115889453       -7.5092944683      -11.1093886091
 C        -6.9405972524       -9.1684304831      -10.6881575814
 C        -0.4928583354       -7.4825355281       -6.0621159017
 C        -2.3080126080       -8.7258309251       -4.5549922067
 C        -4.2148109673       -1.0465889935       -4.8581329308
 C        -6.2902874575       -2.4286505409       -5.3231919518
 C        -3.2633672713       -1.6812797669      -12.4814849847
 C        -0.9982825272       -0.5442116999      -11.8791115050
 C         0.5249693911        3.6327034380       -9.3107496819
 C        -0.2222682884        5.6144897342      -10.6713500997
 C         7.7940007649        2.1199168011      -11.9442421829
 C         7.5330944852        4.1513447509      -10.6316792091
 C         7.5641570543        3.7261137120      -18.7838063049
 C         7.0779788315        6.2163842136      -17.7840365725
 C        -0.3541210723        2.9147462529      -18.1803706097
 C         0.3017970144        4.7604112065      -19.6445477928
 C        -2.0039839807       10.2684657526      -15.9286829446
 C         0.4490220965        9.5905289962      -15.7113284038
 H        -2.2537691651        9.2803194534      -12.1187948365
 H        -3.0387969087        9.7758849087      -13.5886097162
 H        -1.8547945187       10.7790661229      -13.1062398256
 H        -2.9180473000        8.1806951115      -17.6032242449
 H        -3.1565659586        7.1030742429      -16.3218654580
 H        -1.9290209817        6.4536365788      -18.9060587938
 H        -3.1312202305        5.4942273153      -17.9311125229
 H         2.7272707109        4.8637448821      -19.0862021564
 H         2.5793121994        3.2089075826      -18.4221607220
 H         4.1480118862        3.8286294060      -16.7916237548
 H         3.8123780374        5.5273693348      -16.9113036962
 H         6.9791225022        5.7687149566      -15.1891076665
 H         8.5019158332        5.0989239605      -15.9008425425
 H         8.8453680967        4.0107242426      -13.7674759667
 H         7.6616280962        2.8810405282      -14.4343376708
 H         3.9691421443        3.7767760871      -12.5001967303
 H         4.5809291809        4.9278502330      -11.3406482233
 H         3.0370116771        3.8128459780       -9.7197489525
 H         2.8002915073        2.4356146056      -10.7075356226
 H        -2.2349804249        3.0409194381      -10.4539269274
 H        -1.0688541517        1.5486705409      -10.7683746665
 H        -1.8366860186        1.7268767779      -13.2494443226
 H        -2.9443707548        2.8214138701      -12.9373499662
 H        -4.2754752005       -2.3353723537       -9.6582485559
 H        -4.7032385772       -0.6382703374       -9.8085579706
 H        -3.6375380139       -0.3221751738       -7.5461023498
 H        -2.7960399343       -1.7896648524       -7.5453939900
 H        -2.8649023065       -3.9893451315       -3.8859121181
 H        -2.0929163936       -2.8346113811       -4.9154418777
 H        -0.9590840637       -5.0440649273       -5.4857159480
 H        -2.1643573267       -5.1240171308       -6.6123493732
 H        -4.7970014921       -8.4300547972       -6.3007894567
 H        -3.7585250358       -9.8533319797       -6.4230559228
 H        -5.0399400769      -10.0804196127       -8.3098844850
 H        -3.9242499692       -8.9963002019       -9.1942137668
 H        -9.2214246694       -7.2551027048       -9.9522367957
 H        -8.5842342436       -7.3991029047      -11.5634162579
 H       -10.4065212211       -5.6627796684      -11.3106761333
 H        -8.9334426483       -4.7252558342      -11.7482603083
 H       -11.4950847777       -6.4563714796       -6.4631450256
 H       -11.0937006219       -5.1613769662       -5.5015963880
 H       -10.3102648008       -6.9606984298       -4.2341499990
 H        -8.7321719590       -6.5295171384       -5.1437979425
 H       -11.5550762457      -11.9379335384       -4.6637316813
 H       -12.6466213621      -10.9628452093       -5.5784802071
 H       -13.2775094139      -12.4228027736       -3.5745632812
 H       -14.1246738604      -11.0553417665       -3.5246665196
 H       -13.2088790697       -8.5422883402        0.8122184587
 H       -14.5156741254       -9.1923088702       -0.0862458694
 H       -12.9830894291       -8.7519101330       -0.8429803576
 H       -15.3072377563      -10.9906398083       -0.5984144403
 H       -14.9504986250      -12.6073862862        0.0103000051
 H       -15.0564810765      -12.4069171546       -1.7275982678
 H       -13.0568391189      -13.3389807211        0.6898462660
 H       -11.5209907715      -12.7160891176       -0.0544698518
 H       -12.6003563070      -13.8342172805       -0.8883315540
 H        -9.8761469753      -11.8212546099       -5.9050106245
 H        -8.6601655884      -10.7375619246       -6.4308800590
 H       -10.3458029421      -10.6209918469       -7.0295695539
 H        -8.7779022409       -8.8191804176       -3.3131671431
 H        -7.7880010937       -9.7349073831       -4.3852149555
 H        -9.0401471919      -10.4527743309       -3.2401966029
 H       -10.0322291090       -3.0523475811       -7.6882142693
 H       -11.5422020498       -3.6537077949       -7.1164926393
 H       -11.4264701387       -2.9384176571       -8.9209621106
 H       -11.7930206514       -5.6061982132      -10.0139455629
 H       -12.4268757959       -5.7875501005       -8.5090763990
 H       -11.1812438921       -6.9206353419       -9.1169058601
 H        -4.3571058886       -8.4100752186      -11.3409265979
 H        -4.3844872446       -6.8229230259      -10.5568550724
 H        -5.2238454804       -6.9955570110      -12.0255455694
 H        -6.2623904199       -9.9798806788      -10.6175102307
 H        -7.3593508104       -9.0916893597      -11.6597161554
 H        -7.7796570045       -9.3638658428       -9.8989151383
 H         0.1380705200       -7.1805992677       -5.2516181161
 H        -0.5468365546       -6.8903758098       -6.9335535258
 H        -0.1553572361       -8.5009322276       -6.3754028687
 H        -1.7257527366       -8.5057117382       -3.6764360398
 H        -1.9389915184       -9.7021208958       -4.8338279292
 H        -3.3848699127       -8.6943534806       -4.3043170808
 H        -4.0271159011       -1.3385172336       -3.8398780007
 H        -5.0430998239       -0.3464314901       -4.9073287502
 H        -3.2621524380       -0.6848184327       -5.2050230119
 H        -6.6511741001       -3.3288379877       -5.7763725348
 H        -6.8927392089       -1.6226437575       -5.7902719435
 H        -6.4912266148       -2.2813619176       -4.2559037867
 H        -2.8716684351       -1.5451720038      -13.5067747810
 H        -4.2890575516       -1.6581506573      -12.5427678961
 H        -2.8495665095       -2.6127700760      -12.1298487869
 H        -0.8104839977       -1.4417122056      -12.4848564566
 H        -0.3792956435       -0.5048807965      -10.9796125770
 H        -0.6804108909        0.3464700286      -12.4833871013
 H         1.2179580478        2.7308352205       -9.1363433204
 H        -0.4886908842        3.3525735388       -9.0735412528
 H         0.8658057728        4.4686495083       -8.6466416195
 H        -1.2968073442        5.5811406395      -10.5912438792
 H         0.0542190378        6.2628328317      -11.5208556811
 H         0.0581987857        6.1572466279       -9.7531456363
 H         7.5516676449        1.4219996576      -12.6869881934
 H         7.9118518155        1.6990111591      -10.9515138452
 H         8.7273807676        2.6364453751      -12.3253996379
 H         8.3087817645        4.7286928638      -11.0290053568
 H         7.7685534234        3.4634712069       -9.8685054988
 H         6.8417572229        5.0111064256      -10.2979617051
 H         8.5644043007        3.7375663996      -18.4319704910
 H         7.6153900082        4.1015062936      -19.8731637516
 H         7.2040214015        2.7244599993      -18.8542606152
 H         6.4461285604        6.6817839485      -16.9921058471
 H         6.7292429668        6.6390390077      -18.8201855916
 H         8.1121346224        6.3367060269      -17.5364783537
 H        -1.4565834678        2.8615658731      -18.4561264166
 H        -0.4418971025        2.5337429860      -17.1753490193
 H         0.3482207650        2.3774200271      -18.6971582299
 H         1.0931203955        4.0662467412      -19.9961120744
 H         0.7164155105        5.7400308191      -19.8651521152
 H        -0.6734051884        4.5551133277      -20.2268598695
 H        -3.0284595514       10.0990439528      -15.6702461189
 H        -2.1269385358       10.4622436500      -17.0099491643
 H        -1.6950735248       11.2332957187      -15.5444379888
 H         1.1237650456        8.7923709118      -15.6679386492
 H         0.6492490675       10.2134293548      -14.8032843157
 H         0.3466955843       10.1643590455      -16.6192384632
 Na        0.3695283689        5.4802346567      -14.3108605880
 Na       -6.3369872479       -4.7583037632       -7.7639429875
