232

 C        -2.0411487050        9.6897117532      -13.0748615433
 C        -1.3097743892        8.6885699450      -13.9946834855
 O        -0.7243192979        7.7486390717      -13.4889782072
 C        -1.1550190802        9.0720306899      -15.5286743211
 C        -1.1373897858        7.6400808630      -16.2649397698
 O        -0.1353942115        7.0038740736      -16.4607683666
 C        -2.3846183588        7.2272746478      -17.0618590284
 C        -2.0726725508        5.9680690158      -17.9156800686
 C        -1.1276477183        4.9962355575      -17.2945063922
 O        -1.3908171376        4.5605863052      -16.1562069510
 C         0.0993103771        4.4329233404      -18.0576943166
 C         1.4709984320        4.7071104156      -17.3238299435
 O         1.5881988793        5.0482077114      -16.1822897841
 C         2.7056556663        4.4292663780      -18.2014590111
 C         4.0845995282        4.7638341903      -17.5297337799
 C         5.2286356363        4.7703543905      -18.4565132859
 O         5.0622012161        5.0335470155      -19.6397615260
 C         6.7101056110        4.8059331567      -17.9035031152
 C         6.7455048484        4.1464600638      -16.4207271511
 O         6.0747674085        3.1666371161      -16.1464549053
 C         7.7205413747        4.7970190261      -15.3374032679
 C         7.9034674723        3.8252114484      -14.1112537193
 C         6.7729816610        4.0350515765      -13.1418702188
 O         5.9816530349        4.9589648578      -13.2836215334
 C         6.8944482543        3.2361417423      -11.7605851625
 C         5.3961904820        2.7459497161      -11.1643885912
 O         5.2163676711        1.7354977561      -10.5130148537
 C         4.3677339859        3.7838661507      -11.4239180580
 C         3.0648960071        3.4193244273      -10.8045229374
 C         1.9296862353        4.1202083823      -11.4281004879
 O         2.0258090573        4.8244603588      -12.4343423848
 C         0.4337782203        4.1612129305      -10.7715054358
 C        -0.4290620131        3.5129361898      -11.8175868074
 O        -0.4380433423        3.7189657032      -13.0154354795
 C        -1.4686003227        2.4758870692      -11.2827299758
 C        -2.5628411065        1.9691515084      -12.3177974842
 C        -3.3399051424        0.7881120233      -11.6853328514
 O        -4.5105607260        0.8651299375      -11.3313718237
 C        -2.5698708718       -0.5459117812      -11.6099652096
 C        -2.6374615458       -0.8715208235      -10.0599402181
 O        -1.6334012659       -0.7348417782       -9.3805992534
 C        -3.9225585980       -1.1515982023       -9.4081745884
 C        -3.6684883670       -1.2278128878       -7.9115581247
 C        -4.7928994283       -1.9673874287       -7.1514480755
 O        -5.6140003726       -2.5564289497       -7.8426185779
 C        -4.9435990379       -2.1718445563       -5.6072062318
 C        -4.1822830337       -3.6016093188       -5.3809013433
 O        -4.7736343074       -4.6371153594       -5.7624739261
 C        -2.6568541425       -3.6666468834       -5.0159319464
 C        -2.0388222357       -4.8931956951       -5.5626376837
 C        -2.2775264254       -6.1849083675       -4.8028077904
 O        -2.7784156922       -6.1538713506       -3.7063182411
 C        -2.0233754252       -7.5569719236       -5.5094935112
 C        -2.8234912526       -7.7702562403       -6.8691329421
 O        -2.5972528922       -7.0958820392       -7.8729273732
 C        -3.8864623657       -8.8817595271       -6.9416790930
 C        -4.5557006698       -9.0170409402       -8.3518601164
 C        -5.7244726273       -7.9600473593       -8.6981843288
 O        -6.1060780125       -7.2184759167       -7.8147652115
 C        -6.1577122427       -7.8508825659      -10.2542469766
 C        -7.0558706527       -6.5896779106      -10.4273050892
 O        -6.5856527696       -5.5287955150       -9.9895646153
 C        -8.5643305728       -6.7644449451      -10.7088099577
 C        -9.5004407108       -5.6324299623      -10.9652693223
 C        -9.4752845022       -4.6784438505       -9.7702639506
 O        -8.7443472180       -3.6855157381       -9.6855652015
 C       -10.4748651958       -4.9656277007       -8.5749540941
 C        -9.7781067601       -5.4616136083       -7.3251453187
 O        -8.5543862158       -5.3735832900       -7.1084316444
 C       -10.6301671338       -5.8991759788       -6.0932854965
 C        -9.8636111263       -6.8742944712       -5.2437275308
 C        -9.9598425589       -8.2143763431       -5.9425094180
 O        -9.9079412216       -8.2131859878       -7.1648877232
 C       -10.0042444744       -9.6098425248       -5.1021944074
 C       -11.4018213256       -9.6913353065       -4.3022234680
 O       -11.8162642132       -8.6605844807       -3.7674211880
 C       -12.4328167475      -10.9502262342       -4.4880123588
 C       -13.1744010186      -11.4225440077       -3.2390125139
 C       -12.4366678771      -11.3112995763       -1.9120757373
 O       -11.3036369188      -10.8483206187       -1.8445347924
 C       -13.2923032386      -11.7413619981       -0.5704649081
 C       -12.9092482080      -10.6478329326        0.4531658256
 O       -12.2017774726      -10.8993055509        1.3880122623
 C       -13.2748986139       -9.1733000962       -0.0589311711
 C       -14.8224717552      -11.8229590144       -0.7409245525
 C       -12.6794025660      -13.1513124236       -0.1886488359
 C        -9.6598196706      -10.7928207069       -6.0032417195
 C        -8.9072964975       -9.7530522680       -3.9839965121
 C       -11.0976139799       -3.6004323933       -8.0669516464
 C       -11.6218958520       -6.0292962569       -8.8543770345
 C        -4.9197203393       -7.4401113448      -11.1516630839
 C        -6.8060964880       -9.1379464082      -10.8550125614
 C        -0.5110982806       -7.5608037695       -6.0072055192
 C        -2.2877169994       -8.7227261633       -4.6513853176
 C        -4.2481581468       -1.0913132379       -4.7685444394
 C        -6.4207587287       -2.3574294561       -5.3082167247
 C        -3.3387876252       -1.6574748661      -12.3790113936
 C        -1.1004367631       -0.4838519227      -12.0510395716
 C         0.5244301013        3.4427591251       -9.3645394304
 C        -0.0504470445        5.5996740646      -10.6045322199
 C         7.6094877779        1.8351142344      -11.9050219529
 C         7.5306370072        4.2929722372      -10.7825803381
 C         7.6184182801        4.0331783012      -18.8764070253
 C         7.1148677748        6.2390914739      -17.8293572980
 C        -0.1954493761        2.9511858542      -18.2007652447
 C         0.2446514476        4.9816755642      -19.5560979898
 C        -2.1848845418        9.9909597066      -16.0662280314
 C         0.3297666529        9.6595131450      -15.7144898140
 H        -1.9059844966        9.2993231781      -12.1256978302
 H        -3.1008214269        9.8860763131      -13.1941350486
 H        -1.7430717578       10.7273070974      -13.1633914678
 H        -2.8209070782        8.0298754732      -17.8020214912
 H        -3.3124529598        7.0816560146      -16.4697707873
 H        -1.7510905052        6.4626761318      -18.7845382002
 H        -2.9358794681        5.3694722267      -18.0950005591
 H         2.6704614727        5.0526413046      -19.0849353645
 H         2.6085406401        3.3759852153      -18.5242192560
 H         4.0969423626        4.1229950087      -16.6564281262
 H         3.9975290982        5.8089840186      -17.1787325681
 H         7.1715698007        5.7194250688      -15.0888366713
 H         8.6160869693        5.0975894689      -15.8529513727
 H         8.8424945118        3.9964934993      -13.5789958478
 H         7.9207779511        2.7665862842      -14.4742243138
 H         4.1715215781        4.0088599338      -12.4587495125
 H         4.6934200712        4.7986142984      -11.0015118520
 H         3.0938578938        3.6849685844       -9.7976579165
 H         2.8255373278        2.3037523670      -10.7549063944
 H        -2.0092941509        3.0257655414      -10.4861113371
 H        -0.7868611026        1.6423516832      -10.8620488923
 H        -2.2401898269        1.9413907468      -13.3816189145
 H        -3.2610037599        2.7095133349      -12.4816316196
 H        -4.1910578478       -2.1485619821       -9.6174186530
 H        -4.7664870162       -0.5553765238       -9.8948581930
 H        -3.7772166447       -0.1868435734       -7.3901698935
 H        -2.5684331153       -1.5767344504       -7.6042203152
 H        -2.5821815355       -3.6092211265       -3.8741909240
 H        -2.1666996254       -2.7800317864       -5.3524370690
 H        -0.9289618353       -4.8667474771       -5.4525448364
 H        -2.1079068156       -5.0564721994       -6.5897655746
 H        -4.5515961745       -8.8825103030       -6.1560646310
 H        -3.4407572730       -9.8624703532       -6.7965510867
 H        -4.7747690696      -10.0967907446       -8.3740714393
 H        -3.8641874120       -8.7503372215       -9.0604966794
 H        -8.8798985523       -7.3286911414       -9.8884516924
 H        -8.5769982180       -7.4385919396      -11.5787231746
 H       -10.5284227303       -5.9889386913      -11.1444344046
 H        -9.1725177350       -5.1725957429      -11.9046151189
 H       -11.6732507994       -6.1549617404       -6.3078543395
 H       -10.8235770489       -4.9879379141       -5.5401328237
 H       -10.3792324468       -6.9174427916       -4.2499693269
 H        -8.7987078781       -6.5696536452       -5.1780742396
 H       -11.9954949685      -11.8944824778       -4.9355965650
 H       -13.2579048289      -10.7216373660       -5.2764740195
 H       -13.6713017555      -12.3523113777       -3.4376154164
 H       -14.1410635299      -10.8272804011       -3.2166940669
 H       -13.1734502035       -8.2958478431        0.5769994399
 H       -14.2811975135       -9.0863801198       -0.4233878962
 H       -12.6348374096       -8.8708807805       -0.9196306702
 H       -15.2087651194      -10.9172091397       -0.5434941174
 H       -15.2007370998      -12.5137960923       -0.0191847392
 H       -15.0973115912      -12.1983266028       -1.7126627759
 H       -13.2347135863      -13.6401102726        0.6219476882
 H       -11.6317892067      -12.9441092938        0.0369252465
 H       -12.6438834890      -13.8390795540       -0.9340058687
 H        -9.5998637607      -11.7094975082       -5.4846879157
 H        -8.6851078135      -10.6183628347       -6.5333997754
 H       -10.5253688059      -10.9524370324       -6.6213335464
 H        -8.9302513851       -8.9548806947       -3.2080175559
 H        -7.8654238358       -9.7674018203       -4.3365837823
 H        -9.1148544543      -10.5847617429       -3.4100246480
 H       -10.3916929504       -2.9841611325       -7.5024602028
 H       -11.8861893149       -3.9236561323       -7.4015061957
 H       -11.4331141373       -3.0834288431       -9.0121340749
 H       -11.9022159499       -6.2447226226       -9.8484283544
 H       -12.5403573981       -5.5752841027       -8.3721329034
 H       -11.2671983397       -6.9456772972       -8.5075138822
 H        -4.1494859656       -8.1764735640      -11.2096067207
 H        -4.4681072911       -6.5473338673      -10.7225981400
 H        -5.1930529388       -7.1050458117      -12.1569492596
 H        -6.0691181430      -10.0014682096      -10.7636809963
 H        -6.9405402302       -8.9471886503      -11.8795733287
 H        -7.7366603577       -9.4219671605      -10.3828595136
 H         0.1935021594       -7.4198243271       -5.2574715116
 H        -0.4596779870       -6.9545851509       -6.8796298576
 H        -0.3634743169       -8.5555197983       -6.3409466695
 H        -1.7323663635       -8.5888194810       -3.7097878610
 H        -1.8383411333       -9.6287050647       -5.0431699005
 H        -3.3393198239       -8.7774106350       -4.4296374262
 H        -4.2620168815       -1.4303689011       -3.7293399523
 H        -4.7870184493       -0.1420104369       -4.9054845055
 H        -3.1510309686       -1.0483272065       -4.9598757443
 H        -6.8305806908       -3.2890218350       -5.7089036137
 H        -7.1269393715       -1.5308126366       -5.6404311946
 H        -6.4566866060       -2.2599486207       -4.2247480153
 H        -3.1599693184       -1.5310724240      -13.4217293113
 H        -4.4137854482       -1.5348844876      -12.2660492899
 H        -2.9551928344       -2.6310615631      -12.0585571124
 H        -0.6815191556       -1.5091737573      -12.2060253121
 H        -0.5348064559        0.0758638474      -11.2888901269
 H        -1.0342259474        0.0803644174      -12.9889288176
 H         0.8387269397        2.4460183461       -9.3505127247
 H        -0.5358847845        3.5522674239       -8.8945822540
 H         1.2740300617        4.0327527538       -8.8133816689
 H        -1.1164527573        5.7147942049      -10.2296111961
 H         0.0931188623        6.2155698757      -11.5120827812
 H         0.4620314318        6.0646868524       -9.7955462777
 H         7.1770541216        1.2372560016      -12.7084858458
 H         7.5478116605        1.3762659644      -10.9417323806
 H         8.6292438893        2.0402304992      -12.2731219527
 H         8.3619088897        4.7418768938      -11.2830544335
 H         7.7740763431        3.7130851487       -9.8811696715
 H         6.9008807461        5.2040515605      -10.6028163466
 H         8.6844156806        4.0638558197      -18.5798301680
 H         7.5541104851        4.2688462048      -19.9373113357
 H         7.2717235406        2.9828441437      -18.8164887838
 H         6.4082800394        6.8440099436      -17.2755793915
 H         7.1128785172        6.5585805375      -18.8453368001
 H         8.1172856851        6.2581197851      -17.2815265013
 H        -1.1687696335        2.7910989777      -18.5440494136
 H        -0.3234619673        2.6719539076      -17.1816004401
 H         0.7075246792        2.3938836769      -18.5813307714
 H         1.0365259056        4.3642558411      -20.0566359051
 H         0.6221725109        5.9949090476      -19.6062382084
 H        -0.7081862618        4.8866715837      -20.0805702365
 H        -3.2115684486        9.7707982436      -15.8846830261
 H        -2.1793301328       10.0108410056      -17.1475250373
 H        -2.0239345296       11.0322470302      -15.8224759948
 H         0.9460892204        8.7631794433      -15.5751020608
 H         0.5983531098       10.3356015098      -14.9131621798
 H         0.2988833426       10.0248539829      -16.7204697248
 Na        0.3550797045        5.6202095100      -14.2908109545
 Na       -6.3232883938       -4.7790435845       -7.7036499878
