232

 C        -1.9217514114        9.6077514009      -13.2122730952
 C        -1.3187053497        8.5551222753      -14.0105547554
 O        -0.6715576223        7.6557241698      -13.4854024862
 C        -1.2467800008        8.8798451897      -15.5413009649
 C        -1.1636443501        7.6084456691      -16.4421568254
 O        -0.0747162475        7.1718796858      -16.8342528615
 C        -2.4420442244        6.9779862275      -16.9225289879
 C        -2.2636384603        5.8104094696      -17.9527943461
 C        -1.1593050482        4.9405444324      -17.2748290657
 O        -1.3248086242        4.7276126048      -16.0944000483
 C         0.1214035665        4.5014698593      -18.0363603381
 C         1.5188226276        4.8604634905      -17.3316387824
 O         1.5672569149        5.1145267754      -16.1361411915
 C         2.7619370590        4.7913758943      -18.2325209785
 C         4.1267698405        5.0019413042      -17.4509279344
 C         5.3014737832        4.9954211709      -18.4337982363
 O         5.0528600567        4.7991698669      -19.5705240741
 C         6.8047767431        5.0498436356      -17.8544602903
 C         6.9049940528        4.2011597227      -16.4828771915
 O         6.2189450131        3.2275361288      -16.3585229044
 C         8.0058023858        4.5259805498      -15.3981393019
 C         8.0433139886        3.5851787708      -14.2406120090
 C         6.9245007773        3.8716516868      -13.1630776286
 O         6.1337620700        4.8141013822      -13.2438258005
 C         6.8868557157        2.9662577186      -11.9328993201
 C         5.4330588778        2.7011357663      -11.3506582172
 O         5.1996454000        1.6551997318      -10.7789899746
 C         4.3857362550        3.8610359887      -11.3552230728
 C         3.0226585527        3.3083541384      -10.8343925326
 C         1.8594580376        4.1139621837      -11.5295489762
 O         2.0910881764        4.8118704853      -12.4953096532
 C         0.4765375210        4.1279338011      -10.7904218504
 C        -0.5595325101        3.4893763859      -11.8295707240
 O        -0.3844775301        3.6842992171      -13.0316118490
 C        -1.6492468014        2.6446001286      -11.2881362704
 C        -2.7213742703        2.1101592705      -12.2012029417
 C        -3.3685578391        0.7843956650      -11.7604869480
 O        -4.5176652223        0.7860182134      -11.4814132669
 C        -2.6027389737       -0.6071824046      -11.5894299072
 C        -2.3912072618       -0.7481271676       -9.9873394953
 O        -1.3336770339       -0.8450240009       -9.4344514188
 C        -3.7528900582       -1.0313739742       -9.2434308100
 C        -3.8487982178       -0.9926970372       -7.6865677640
 C        -4.9217050740       -2.0127253957       -7.1601699381
 O        -5.6299965296       -2.7509632883       -7.8260060786
 C        -5.0437857350       -2.1881883398       -5.6090568544
 C        -4.2710649980       -3.6290371011       -5.5989854978
 O        -4.7813805962       -4.6390531954       -5.9248687138
 C        -2.7864155465       -3.6645155205       -5.1355460747
 C        -1.9795118163       -4.9091316597       -5.6672371351
 C        -2.3347420341       -6.1812134998       -4.8851549233
 O        -2.5968393483       -6.0367463456       -3.7127367258
 C        -1.9522676686       -7.5454124253       -5.4756960250
 C        -2.7477945384       -7.7674576634       -6.8722325189
 O        -2.6326175488       -6.9401932092       -7.7458626842
 C        -3.8524011326       -8.8527966753       -6.9383426966
 C        -4.4318458356       -9.0083347705       -8.4339947266
 C        -5.4682459945       -7.9064394124       -8.7614711026
 O        -5.9027778415       -7.1995218269       -7.8791043223
 C        -5.8463383206       -7.6827954607      -10.3029012182
 C        -7.0614637756       -6.5812947487      -10.3252637791
 O        -6.8109372339       -5.4471184841      -10.0058781443
 C        -8.4389689874       -7.0895507939      -10.7058856732
 C        -9.3619392383       -5.8453677815      -10.8592121211
 C        -9.6535258696       -4.8698333509       -9.6816521247
 O        -9.0420575541       -3.8124419686       -9.7100843596
 C       -10.6891262415       -5.0418864470       -8.5170194637
 C        -9.8264829878       -5.3214272019       -7.1563078171
 O        -8.6262462102       -5.1935409402       -7.1980725052
 C       -10.5067332750       -5.6529072128       -5.8417526268
 C       -10.0631692376       -6.9976488741       -5.1228623520
 C       -10.1228825085       -8.2896513604       -5.9009009218
 O       -10.0785492490       -8.4060589260       -7.1038824964
 C       -10.2192525690       -9.5522350319       -5.0404884669
 C       -11.5736129042       -9.5888385787       -4.2389387492
 O       -11.9755030434       -8.6171351715       -3.6465205249
 C       -12.4325252350      -10.7495884408       -4.5538690315
 C       -13.4270738119      -11.0056610048       -3.2862765868
 C       -12.5252711426      -11.2542390061       -1.9632686263
 O       -11.4045813155      -10.8280807749       -1.8965873388
 C       -13.2005602751      -11.7166922712       -0.6026854398
 C       -12.6300074243      -10.6213186961        0.5019236953
 O       -11.9520330577      -10.9709516819        1.4009242707
 C       -12.9719286836       -9.1701911761        0.1162673656
 C       -14.7607211242      -11.7804368733       -0.7255298108
 C       -12.7995784669      -13.1781888105       -0.1567625109
 C       -10.0074705125      -10.8683515268       -6.0473316226
 C        -9.1706827454       -9.4230594650       -3.8942093745
 C       -11.3953460021       -3.6380461489       -8.3953225399
 C       -11.6997331456       -6.1296083304       -8.7859341300
 C        -4.5791699807       -7.2808077179      -11.0896688667
 C        -6.3331370528       -9.1150862508      -10.7335625752
 C        -0.4863516132       -7.6171637582       -5.9297175458
 C        -2.2264038288       -8.6345403784       -4.4149491759
 C        -4.3508316525       -1.0774855106       -4.7841189106
 C        -6.4665190154       -2.2727092046       -5.0740748839
 C        -3.5921454078       -1.7004507244      -12.2060274163
 C        -1.2583192562       -0.8336464038      -12.3985814587
 C         0.3879173352        3.2574132683       -9.5010171150
 C         0.2186577022        5.6246801139      -10.4495225269
 C         7.6868507541        1.6301150774      -11.9109228487
 C         7.6721140679        3.8820011770      -10.8468512282
 C         7.7059891606        4.2820247956      -18.8225403229
 C         7.2218339883        6.6144715827      -17.7722135350
 C         0.1807128801        2.9412471494      -18.1552498811
 C         0.1148309306        5.0786630260      -19.4670955260
 C        -2.5052154611        9.7033618096      -15.9666742308
 C         0.0843550437        9.7678413799      -15.6974983995
 H        -1.5974633009        9.6247565353      -12.1569289132
 H        -2.9916152617        9.7176732170      -13.1821284732
 H        -1.6752749811       10.5316636234      -13.7144357657
 H        -3.0905996627        7.6625025773      -17.3530499215
 H        -3.1123412803        6.6088822657      -16.1399271224
 H        -2.0557457795        6.4386741594      -18.8384104483
 H        -3.1567336869        5.1356981908      -18.0649073822
 H         2.6010581024        5.6264567422      -18.9435475273
 H         2.7961732586        3.8420887933      -18.7863546849
 H         4.0347312302        4.2268627014      -16.6705484709
 H         4.0402065981        5.9621711822      -16.8952790762
 H         7.9226114850        5.5403357320      -15.0399353959
 H         8.9488173510        4.4985111452      -15.9211855023
 H         9.0975041665        3.6514918201      -13.8534147874
 H         7.9217710318        2.5299353057      -14.5272399351
 H         4.2280246004        4.4588402551      -12.2982231949
 H         4.6301489274        4.6423912196      -10.6760837427
 H         3.0896290140        3.3948503996       -9.6807622596
 H         2.8341399674        2.2707171880      -10.9640616412
 H        -2.0668505767        3.3372515086      -10.5689320777
 H        -1.1661416901        1.8750961213      -10.8066077626
 H        -2.5369313051        2.2862607249      -13.2270118272
 H        -3.6486680632        2.7897200082      -12.1209917000
 H        -4.2105433964       -2.0152631016       -9.6086777825
 H        -4.4080414333       -0.3135492562       -9.6414485958
 H        -3.9264584436       -0.0039599100       -7.4105521615
 H        -3.0111567917       -1.3354629607       -7.1449719692
 H        -2.7943256622       -3.5562167947       -4.0633931138
 H        -2.1811981927       -2.7447022794       -5.4499949552
 H        -0.9068514156       -4.7710950335       -5.5458332374
 H        -2.0052619824       -5.0788086551       -6.8050930049
 H        -4.6439992425       -8.2869574429       -6.3432310704
 H        -3.7314022250       -9.8216599128       -6.3825737124
 H        -4.9736664888       -9.9668422538       -8.4955770200
 H        -3.6142927711       -8.9673420079       -9.2580859503
 H        -8.6988885644       -7.6746882060       -9.7184276362
 H        -8.5438212854       -7.7761186987      -11.5693441594
 H       -10.3344172706       -6.2126464827      -11.0819928919
 H        -8.9508194362       -5.3243899708      -11.7093072668
 H       -11.5631330427       -5.5119173641       -6.0274722623
 H       -10.3357313567       -4.8179902621       -5.1325285740
 H       -10.7734652844       -7.0997914183       -4.3452279799
 H        -9.0724670792       -6.9170558930       -4.7203773618
 H       -11.8549375482      -11.6419225984       -4.7109933876
 H       -12.9999344507      -10.5973059794       -5.4157872866
 H       -14.1183351971      -11.8673211676       -3.4323600546
 H       -14.1633126030      -10.2373566085       -3.3999101812
 H       -13.1930209992       -8.4696139091        0.8877770134
 H       -13.8602360670       -9.0890197458       -0.5474178092
 H       -12.1712290170       -8.6780808304       -0.3753083779
 H       -14.9663749127      -10.8606509820       -1.3270543225
 H       -15.2431944449      -11.6789273105        0.2722029750
 H       -15.0658983588      -12.6766886478       -1.2506831508
 H       -13.3368717571      -13.4481967885        0.7175325394
 H       -11.7375500790      -13.2783307763       -0.0499716581
 H       -13.0110874265      -13.9734961186       -0.9609459492
 H        -9.7587003914      -11.7926376482       -5.4439126942
 H        -9.1843404671      -10.6615746934       -6.6631308733
 H       -10.9282833892      -11.1272789650       -6.6155441664
 H        -9.4761665239       -8.6348110696       -3.2446212985
 H        -8.1607461578       -9.2203684973       -4.2309365027
 H        -9.0544773785      -10.3672339495       -3.2607329073
 H       -10.5408730526       -2.9705765023       -8.3435751077
 H       -12.0493656078       -3.6897947504       -7.5252883397
 H       -11.8857111817       -3.3670366960       -9.2943893379
 H       -12.2327751406       -5.9160596106       -9.7813957856
 H       -12.4643473489       -5.9726024141       -8.0657679008
 H       -11.2311881196       -7.1363968664       -9.0112625739
 H        -3.7255129352       -7.9504590261      -10.8461864857
 H        -4.2470358984       -6.2784309033      -10.9172243056
 H        -4.7555278235       -7.2785449835      -12.1389530934
 H        -5.5394481026       -9.7675441022      -10.6474483388
 H        -6.6685511665       -9.1797255671      -11.7953340243
 H        -7.1978699232       -9.4113092151      -10.0521906689
 H         0.0228746495       -7.6445925177       -4.9323892106
 H        -0.1996654138       -6.7232158406       -6.5121408558
 H        -0.1163097671       -8.5316014084       -6.4727588946
 H        -1.5758601258       -8.4834632331       -3.5722207610
 H        -2.0306847370       -9.6573680937       -4.7495655822
 H        -3.2495521350       -8.5120411380       -4.0222465251
 H        -4.5419855021       -1.4111593342       -3.7570859586
 H        -4.8278228047       -0.1094789359       -5.0364580545
 H        -3.2680717258       -0.9818565862       -4.8122801257
 H        -7.0191548593       -3.0120594168       -5.6502778207
 H        -6.9856777037       -1.3420716402       -5.1499835216
 H        -6.4247939831       -2.4992377909       -3.9898118462
 H        -3.7222793150       -1.3148128085      -13.2610458814
 H        -4.6000290970       -1.7147055103      -11.8280747064
 H        -3.1088595687       -2.6940881185      -12.2026553256
 H        -0.8828633424       -1.7471772639      -12.0170929138
 H        -0.4740290885       -0.1188800587      -12.2952708326
 H        -1.5425589542       -1.0154602610      -13.4311923301
 H         0.5629441002        2.1731201360       -9.7189725031
 H        -0.5310885665        3.4120419006       -9.1222215436
 H         1.1555762790        3.4987817897       -8.8048354867
 H        -0.5753622656        5.7268682679       -9.7734892667
 H         0.0000169564        6.2041659567      -11.3387026309
 H         1.0091931751        6.1108840159       -9.8323989468
 H         7.2783187399        0.9498135826      -12.6325865193
 H         7.4364931518        1.2697428590      -10.9014325369
 H         8.7738191241        1.7956735160      -12.0238826524
 H         8.7538263854        4.0016494884      -11.1276697199
 H         7.5243191348        3.4804929940       -9.8564184569
 H         7.2165648441        4.8867962591      -10.9278603023
 H         8.7418140723        4.5493278729      -18.6684543152
 H         7.4139140268        4.5474753943      -19.8775960292
 H         7.6086256365        3.2153432702      -18.7968678655
 H         6.5669438661        7.0724264177      -17.0570050785
 H         7.0707107590        7.1214785900      -18.7511963181
 H         8.1306511657        6.6715828262      -17.3512915798
 H        -0.6475306993        2.6251700465      -18.8710446710
 H         0.0054038749        2.3832619276      -17.2146148682
 H         1.1344609568        2.7852835282      -18.4699088191
 H         1.0179486341        4.8770504498      -19.9262130329
 H         0.0419081962        6.1369665105      -19.3353217484
 H        -0.7479867967        4.7544592010      -20.0353149721
 H        -3.4386298229        9.1189784113      -15.9058167377
 H        -2.5544208163       10.0722570926      -16.9975955284
 H        -2.7618394482       10.6219366532      -15.4362948691
 H         0.9275018825        9.4168673618      -15.1449937217
 H        -0.2634979610       10.7600771694      -15.3553938401
 H         0.1824753158        9.6860079354      -16.7754140026
 Na        0.3493311229        5.6937397076      -14.2617057883
 Na       -6.4871472133       -4.8961967116       -7.6704675055
