232

 C        -1.8687529616        9.5986892866      -13.0716834002
 C        -1.2434897901        8.5760043407      -14.0296827057
 O        -0.7503414856        7.5520833325      -13.6583751999
 C        -1.3309721441        8.8998004268      -15.6182164343
 C        -1.2094389173        7.6734320336      -16.5045534070
 O        -0.1479503196        7.3343892591      -16.9531929009
 C        -2.5642045469        6.9157737202      -16.8027635866
 C        -2.2669449516        5.6474097019      -17.7365988631
 C        -1.0581971805        4.9355103825      -17.1683912336
 O        -1.0711817527        4.6657226146      -16.0141891636
 C         0.2252940626        4.5427982000      -18.1631181332
 C         1.5591277686        4.9790000581      -17.2848502914
 O         1.5851237720        5.1146181009      -16.0709934371
 C         2.7608068542        5.1261752258      -18.0721387214
 C         4.1472205805        5.1203709341      -17.3772410215
 C         5.3363116889        4.9398899971      -18.3848939008
 O         5.1336851538        4.7401544517      -19.5875691212
 C         6.8111144936        5.1267222199      -17.7921224909
 C         7.0121971972        4.2672664009      -16.5117811137
 O         6.2769784344        3.3076127355      -16.4725240523
 C         8.1044073754        4.4786246003      -15.4638086104
 C         8.0299323632        3.4167521680      -14.3063115079
 C         6.9989603102        3.7634609859      -13.2279490273
 O         6.2789241369        4.7285353133      -13.4851745825
 C         6.9824911210        2.9549111444      -11.8596407162
 C         5.4926392774        2.6860979197      -11.3855625344
 O         5.1825762440        1.5875896512      -10.9901582372
 C         4.5252799722        3.8253348846      -11.3725311246
 C         3.1050609526        3.3799268630      -10.9437982271
 C         1.8664622616        4.1739134619      -11.5325048547
 O         1.9488530082        4.7877347758      -12.5765991118
 C         0.4820737971        4.0733488462      -10.8320714844
 C        -0.6107505647        3.5987572978      -11.8111969073
 O        -0.5896527319        3.7404922728      -13.0340243673
 C        -1.8252061990        2.6464020613      -11.2035979508
 C        -2.6580221947        2.0698147015      -12.3437070230
 C        -3.4572179883        0.7406874314      -11.7842271836
 O        -4.6563434052        0.7892896699      -11.5654315528
 C        -2.7311689752       -0.6513451201      -11.5465126687
 C        -2.3935331007       -0.8285885619      -10.0195376842
 O        -1.2490270640       -0.8131411986       -9.6062122078
 C        -3.7474720382       -1.0233332727       -9.2640470860
 C        -3.9047218950       -0.9446262598       -7.7262902739
 C        -4.9238094505       -1.9787410805       -7.1516582744
 O        -5.5895271406       -2.6596914870       -7.9476109818
 C        -4.9931972731       -2.2506020304       -5.6061947292
 C        -4.2463065226       -3.6674677450       -5.5688910314
 O        -4.8818475623       -4.6357720273       -6.0153600558
 C        -2.7663101128       -3.7208638389       -5.1687180968
 C        -2.0774585966       -4.8991440986       -5.7828229611
 C        -2.2035732275       -6.1358068282       -4.8493895735
 O        -2.6294320300       -6.0856323165       -3.7098129261
 C        -1.9051118301       -7.5544121442       -5.4837047280
 C        -2.8719820540       -7.6474017748       -6.8035988388
 O        -2.5997717243       -6.8982576282       -7.7220205203
 C        -3.8828923819       -8.7517452102       -6.8847581644
 C        -4.3377954418       -9.0157941613       -8.3333469201
 C        -5.2757688131       -7.8306132498       -8.7669133272
 O        -5.7321383752       -7.1707123482       -7.8208915270
 C        -5.7074772459       -7.6997707347      -10.2490379756
 C        -6.9910505698       -6.6643256482      -10.3427119914
 O        -6.7883345030       -5.4800394427      -10.0399719636
 C        -8.3985522880       -7.1338498350      -10.5759973635
 C        -9.4621522524       -5.9606446608      -10.7469042675
 C        -9.6084033419       -4.9082444386       -9.6430853674
 O        -9.0783000467       -3.7721922961       -9.7256385548
 C       -10.6658174362       -5.1242876124       -8.5030665005
 C        -9.9471841347       -5.3402852496       -7.1896462899
 O        -8.7322153767       -5.1214669368       -7.1626106220
 C       -10.5974644396       -5.6679665205       -5.7986429130
 C       -10.0996444248       -6.8980118933       -5.1995088814
 C       -10.2497831155       -8.2327340522       -5.9403094296
 O       -10.1906963624       -8.3282320295       -7.1619954506
 C       -10.2671348375       -9.4218163627       -4.9237903947
 C       -11.7514203448       -9.5700215436       -4.2999769521
 O       -12.1212072039       -8.6517906774       -3.5774051467
 C       -12.5684753751      -10.8670050361       -4.4653939151
 C       -13.4647490832      -10.9269146734       -3.1251161787
 C       -12.5550629603      -11.1542056263       -2.0044342309
 O       -11.3744171626      -10.9682272354       -2.1310488081
 C       -13.2409827246      -11.5881208405       -0.6500716125
 C       -12.6540690567      -10.6876172794        0.4736180636
 O       -11.9279432307      -11.1015225101        1.3507906545
 C       -12.8457678066       -9.2194840925        0.2534622010
 C       -14.7781465231      -11.5850016641       -0.6461649196
 C       -12.6927151044      -12.9914286889       -0.2417923232
 C       -10.1056504623      -10.6845729805       -5.8288105022
 C        -9.1723833088       -9.4515736759       -3.8747621075
 C       -11.4992110231       -3.7223542282       -8.4579498694
 C       -11.6791460269       -6.3031990141       -8.7776527916
 C        -4.5553977774       -7.0588314162      -11.0419064005
 C        -6.1212251193       -9.1058297768      -10.6648861851
 C        -0.4016686770       -7.6059491831       -5.8740964552
 C        -2.3128106842       -8.5438058099       -4.4028203064
 C        -4.3069267485       -1.0645509330       -4.8419270654
 C        -6.4302546082       -2.4703491479       -5.1119570490
 C        -3.7222513697       -1.6805860797      -11.9894392709
 C        -1.3717131340       -0.8107263631      -12.3286594659
 C         0.5328862971        3.3093902911       -9.4640137284
 C         0.1631317270        5.5769494984      -10.4257047771
 C         7.7587552039        1.5908344712      -12.0790710374
 C         7.7903214807        3.6573918614      -10.6279016594
 C         7.7537428361        4.4447628530      -18.8295212466
 C         7.1411925698        6.5799073803      -17.5770158917
 C         0.2058605192        2.9530274703      -18.1479305822
 C         0.2118966864        4.9733806420      -19.6264333377
 C        -2.6210477186        9.6883515743      -15.8275610585
 C        -0.0867857311        9.7952781654      -15.8044912291
 H        -1.7307237502        9.4060048797      -12.0118629139
 H        -2.9789009475        9.4868788934      -13.2134341821
 H        -1.8188213632       10.7194840932      -13.2672527890
 H        -3.3423803903        7.5509950795      -17.2369422445
 H        -3.1418650317        6.5304382486      -16.0298377853
 H        -2.1475928780        6.0388221269      -18.7576677349
 H        -3.0859894498        4.8544739252      -17.6505831317
 H         2.6610062253        5.9775135096      -18.7690035360
 H         2.7394263015        4.1727431991      -18.6789638371
 H         4.0289033773        4.4198719227      -16.5596538275
 H         4.2545070185        6.0789489084      -16.9063893731
 H         8.0659451689        5.5805413157      -15.1026041274
 H         9.0544819659        4.4097858560      -16.0359195824
 H         9.0276776268        3.2166198030      -13.9311320084
 H         7.6933694707        2.4530797369      -14.6898050990
 H         4.5411948676        4.3736898996      -12.2780298086
 H         4.8517880575        4.6625461924      -10.6648304172
 H         3.1143632621        3.3596266747       -9.8659886879
 H         3.0084911162        2.2796473689      -11.1719611810
 H        -2.3926536922        3.2084172445      -10.4177873016
 H        -1.3027856367        1.7657700640      -10.7737878961
 H        -1.9504862479        1.8276702543      -13.1956274564
 H        -3.3456626473        2.7192742810      -12.9134371787
 H        -4.0101734070       -2.0582116569       -9.5593618925
 H        -4.4849704867       -0.3961734727       -9.8148720370
 H        -4.0122182149        0.0239784789       -7.4487703334
 H        -3.0416707997       -1.1824314357       -7.1842534999
 H        -2.6404706012       -3.8168089178       -4.0572394562
 H        -2.2248254617       -2.8239985899       -5.3669195257
 H        -1.0273994948       -4.6269545913       -5.9196441077
 H        -2.3128157262       -5.2240528842       -6.7818860154
 H        -4.7277728783       -8.6346346035       -6.0775159001
 H        -3.2594056887       -9.7251439123       -6.4942522386
 H        -5.0363602202       -9.9111729902       -8.3910345936
 H        -3.4583626359       -9.1544429101       -8.9234000266
 H        -8.6472466303       -7.7832229443       -9.6470986088
 H        -8.5232937991       -7.7401157538      -11.4337860247
 H       -10.4376774891       -6.5120082358      -10.7934198021
 H        -9.1968989867       -5.5360455998      -11.7601803163
 H       -11.6994917854       -5.5301462799       -5.7835575736
 H       -10.2721492785       -4.8583224107       -5.1012653789
 H       -10.6240758093       -6.9076854911       -4.2601056143
 H        -9.0098675366       -6.8247784781       -5.0252202287
 H       -11.9790883171      -11.7366299195       -4.4432920474
 H       -13.2543258158      -10.8763128610       -5.2989397737
 H       -14.3278772344      -11.5494832102       -3.1605819445
 H       -13.9666707105       -9.9396468723       -3.2109613958
 H       -13.1657203848       -8.8076726835        1.1793480703
 H       -13.6383931169       -8.8804428891       -0.4210769766
 H       -11.9782537855       -8.6064805735        0.0520299701
 H       -15.1593613077      -10.9100440058       -1.3601674253
 H       -15.0820046322      -11.2508305875        0.4158452461
 H       -15.1295790904      -12.6817977871       -0.8379665103
 H       -12.9393894282      -13.2646587613        0.8155343800
 H       -11.5772113889      -12.8952717637       -0.3792562703
 H       -12.9238252079      -13.8238831784       -0.9025036542
 H       -10.1378519925      -11.6353148648       -5.2949971952
 H        -9.1581622279      -10.5836259369       -6.2996665897
 H       -10.9056082631      -10.6748028999       -6.6226892892
 H        -9.3539373454       -8.6758502989       -3.0787255282
 H        -8.1390567159       -9.2750390521       -4.3126391164
 H        -9.0396151886      -10.4131414219       -3.4463947121
 H       -10.7891822858       -2.9632403340       -8.7425500647
 H       -11.9691591253       -3.7245601189       -7.5084954829
 H       -12.2862781121       -3.6698009449       -9.2775083178
 H       -12.3654936058       -5.9176068288       -9.5310322622
 H       -12.3167401736       -6.4401289341       -7.8894324101
 H       -11.2746478799       -7.1137197081       -9.2720430117
 H        -3.5547077364       -7.5599576370      -10.9831009426
 H        -4.4048967004       -6.0408178309      -10.7041065429
 H        -4.8276208290       -6.8924297355      -12.0736680178
 H        -5.2600230571       -9.7301669222      -10.9482551341
 H        -6.6691378148       -8.9916896061      -11.5469352117
 H        -6.8201945550       -9.5782251740       -9.8998825613
 H         0.1886011610       -7.3997433970       -4.9607404287
 H        -0.3723522103       -6.7239964660       -6.5795891771
 H         0.0787832626       -8.5273199572       -6.4038854890
 H        -1.6567066439       -8.3254021890       -3.5620519534
 H        -2.1128558504       -9.5789453216       -4.6741344277
 H        -3.3219782371       -8.4159160353       -3.9989926037
 H        -4.1498970318       -1.3073313418       -3.8233005605
 H        -4.9018788372       -0.1881041668       -5.0335074736
 H        -3.3206321791       -0.8091760598       -5.2437486191
 H        -6.9080902985       -3.0220787989       -5.8758033103
 H        -6.9371647701       -1.4895156430       -5.0586160979
 H        -6.5156581214       -2.9652740229       -4.1541660606
 H        -4.0126808989       -1.5641896755      -13.0537665353
 H        -4.6345809786       -1.7120575119      -11.4636096807
 H        -3.1516295342       -2.6033445367      -11.7900433909
 H        -0.9172056192       -1.6794574952      -11.8832784666
 H        -0.6353565186       -0.0548149240      -12.1554188033
 H        -1.6014994695       -1.0341423211      -13.3578162973
 H         1.1438752742        2.4481653165       -9.4330707795
 H        -0.5131830396        3.1070746684       -9.0565971778
 H         1.0481294480        4.0101609043       -8.8208861995
 H        -0.7025942662        5.6644401805       -9.7891252142
 H         0.0345851250        6.2240131881      -11.2851382420
 H         0.9038171221        5.9424506534       -9.7656589364
 H         7.1522671038        1.0873001158      -12.7883933731
 H         7.7157528309        1.0259445705      -11.1603448420
 H         8.8549825804        1.7828911575      -12.3814705672
 H         8.8340468264        3.6677053174      -10.7583745242
 H         7.5309948024        3.1039276728       -9.7442083739
 H         7.2956822135        4.7105926000      -10.5405248769
 H         8.7653832565        4.5894581264      -18.5799122806
 H         7.5863406834        4.6878252623      -19.9173488311
 H         7.5685452045        3.3951213150      -18.7644707595
 H         6.6736360621        6.9802073142      -16.6994837282
 H         6.8469260826        7.1588855567      -18.4756799083
 H         8.2299028790        6.5686432742      -17.3401473786
 H        -0.7111086530        2.6544176782      -18.7129020914
 H         0.1447710000        2.5431517928      -17.1575804254
 H         1.1461087659        2.6392685956      -18.6085227182
 H         1.1885621888        4.6266728005      -20.0089559857
 H         0.0934914479        6.0115627811      -19.7441243015
 H        -0.6372756317        4.4812072667      -20.1526264149
 H        -3.5446851407        9.2543463438      -15.4614757242
 H        -2.9046685369        9.9534920112      -16.8738394145
 H        -2.6242062528       10.6933759803      -15.3875092908
 H         0.6801217579        9.3813430509      -15.1744116647
 H        -0.4166532701       10.8070577294      -15.4580047261
 H         0.2239645298        9.6627470342      -16.8295142815
 Na        0.3872294859        5.5338126540      -14.2837364653
 Na       -6.5567860964       -4.9459708756       -7.6996614388
