232

 C        -1.7906537109        9.4213191189      -12.9323574121
 C        -1.3509625552        8.5144830230      -14.0798225015
 O        -0.8002685395        7.4455416318      -13.7382225900
 C        -1.4218349908        9.0456674830      -15.5444628762
 C        -1.3865607918        7.7227086437      -16.5544468185
 O        -0.3177395040        7.4204497756      -17.0713937640
 C        -2.5512714528        6.8560339496      -16.7517833652
 C        -2.2133427175        5.5935002484      -17.6056299293
 C        -0.9228935037        4.9329364950      -17.1282741830
 O        -0.7335833795        4.4950123719      -15.9777871613
 C         0.2904389825        4.5360140432      -18.0738161722
 C         1.5903136433        5.0069716357      -17.3241862964
 O         1.6472824127        5.1004943002      -16.1277499202
 C         2.9061600725        5.3950482201      -18.2025710048
 C         4.2107709994        5.2938570024      -17.3510551043
 C         5.3813008076        5.0321279554      -18.2686753538
 O         5.2020334036        4.6838808223      -19.4516880477
 C         6.8683967706        5.1414858459      -17.7243965753
 C         6.9839072984        4.1680684747      -16.5410908651
 O         6.2573052906        3.1785372081      -16.3943807940
 C         8.1657297097        4.3927429537      -15.5564962046
 C         8.0869307006        3.2712291439      -14.4870075329
 C         7.2152674912        3.7843299714      -13.3214228721
 O         6.3582981128        4.5963964920      -13.4957511903
 C         7.0954943233        2.9346983949      -11.8666632112
 C         5.5991952072        2.6728931804      -11.4398097762
 O         5.1999114584        1.5249181290      -11.2483781138
 C         4.5580551963        3.8645453712      -11.4098386611
 C         3.1014335288        3.4953081029      -11.0593208284
 C         1.9067552274        4.1669803830      -11.6051077243
 O         1.9467107200        4.7619773471      -12.6777284480
 C         0.4986295859        4.1014081044      -10.7511577060
 C        -0.6681498348        3.5282460223      -11.7685056309
 O        -0.8321679407        3.8854041495      -12.8798002427
 C        -1.8501668341        2.5539153195      -11.2212691210
 C        -2.6044920351        1.8373361700      -12.3525818502
 C        -3.4848565719        0.7237334344      -11.8639066916
 O        -4.6872258784        0.9433766654      -11.6702474263
 C        -2.8297144040       -0.6966306018      -11.5927778431
 C        -2.5696260968       -0.7713803957      -10.0345975053
 O        -1.4014624731       -0.7639476580       -9.6434666330
 C        -3.7826195928       -1.0882349560       -9.2215011985
 C        -3.7835909208       -0.9957164833       -7.7272964251
 C        -4.8853227786       -1.9451377316       -7.2472372378
 O        -5.5651126239       -2.5400802565       -8.0536977339
 C        -4.9591472497       -2.2557112180       -5.7609464438
 C        -4.2274240695       -3.6399837529       -5.6088099609
 O        -4.8387275251       -4.6368409073       -6.0133528149
 C        -2.8112284989       -3.6826414878       -5.1264080340
 C        -2.0983683737       -4.8554727378       -5.7358643801
 C        -2.2294252052       -6.0748204232       -4.8866109627
 O        -2.6317336529       -5.9909683565       -3.7421816370
 C        -1.9116989781       -7.4577390649       -5.4679080953
 C        -2.7384791419       -7.6903583806       -6.7460493329
 O        -2.6463349370       -6.9477075631       -7.7074382834
 C        -3.7308387501       -8.7988969566       -6.8536571434
 C        -4.2732560281       -8.9803408834       -8.2018138317
 C        -5.1988526048       -7.7542996940       -8.5988465270
 O        -5.5988264226       -6.9735898845       -7.8031405654
 C        -5.7208878441       -7.6468114141      -10.1645739169
 C        -6.8847748963       -6.7070962731      -10.1081324857
 O        -6.6361250168       -5.5088269224      -10.0873871207
 C        -8.3700595339       -7.1950509266      -10.3618363668
 C        -9.4680715683       -6.0829289404      -10.7597949594
 C        -9.6562469621       -4.9396196738       -9.6955154172
 O        -9.0547752976       -3.9310921409       -9.7896303324
 C       -10.7572159870       -5.1284908280       -8.5491984177
 C        -9.9354711171       -5.2238777555       -7.2232130921
 O        -8.7418401503       -5.1038605651       -7.0362623699
 C       -10.8080757321       -5.5597662388       -5.8885526643
 C       -10.0888075821       -6.6983408355       -5.0975251107
 C       -10.3024224209       -8.1928190601       -5.8317319102
 O       -10.3651331852       -8.2041057379       -7.0647188589
 C       -10.3686526649       -9.4950324365       -4.9950826169
 C       -11.8325929327       -9.5682363613       -4.2298865138
 O       -12.2427294945       -8.5933490271       -3.6323475085
 C       -12.7317772053      -10.7388214281       -4.3643892468
 C       -13.6327289025      -10.8733493714       -3.1565222936
 C       -12.6426251367      -11.1267458613       -2.0138779880
 O       -11.4019880578      -11.2133435886       -2.2003819954
 C       -13.1284614339      -11.5184901683       -0.6433704474
 C       -12.5409676515      -10.5950346484        0.4599651898
 O       -11.9443706382      -11.2024632502        1.3685942773
 C       -12.7760105697       -9.0942263327        0.4820923325
 C       -14.7233588467      -11.3938715300       -0.4861465322
 C       -12.5631637234      -13.0088240544       -0.4276302750
 C       -10.0817889193      -10.7638139892       -5.8468566858
 C        -9.3245446947       -9.4280969870       -3.9266662547
 C       -11.6348016825       -3.9045491111       -8.3871989753
 C       -11.7190528112       -6.4365071676       -8.7284643689
 C        -4.6208908257       -6.8943657459      -10.9706947873
 C        -5.9160939618       -9.0521308855      -10.7725647532
 C        -0.4277789125       -7.5974277209       -5.8436355033
 C        -2.3111818641       -8.6176650719       -4.4247388274
 C        -4.2716940416       -1.1908728037       -4.8194300070
 C        -6.4102941389       -2.5928847990       -5.2236699377
 C        -3.8354671505       -1.7927505978      -11.9660649158
 C        -1.4575821696       -0.7048822101      -12.3022083412
 C         0.6488780511        3.3266584386       -9.4442945375
 C         0.0266251853        5.5502632678      -10.5093431649
 C         7.7352904535        1.5218745485      -12.2275419494
 C         7.7557045789        3.5096415061      -10.6421652432
 C         7.8732948507        4.6717015452      -18.9045384719
 C         7.1075215306        6.6365634549      -17.4237628994
 C         0.2690322187        2.9510510149      -18.0009579614
 C         0.2307388709        4.9670272854      -19.5002684746
 C        -2.7705437720        9.7492849887      -15.7861865560
 C        -0.1636978670        9.9660768324      -15.9868640514
 H        -1.4674561340        8.9778135763      -11.9760404062
 H        -2.8872068118        9.6211621014      -12.8065683624
 H        -1.4562368207       10.4819543758      -12.9729012108
 H        -3.5047998805        7.3700968824      -17.0535166731
 H        -3.0126098970        6.3185459941      -15.9195119388
 H        -2.0997524153        5.8578985857      -18.6562560922
 H        -3.0119468394        4.8966228811      -17.4269520876
 H         2.9109066376        6.4504633219      -18.5010639084
 H         3.0842383468        4.7809399232      -19.1136016981
 H         4.1776032075        4.4800185617      -16.6501859939
 H         4.2283187501        6.1719197409      -16.7232907077
 H         8.0062392325        5.4094888097      -15.0920373951
 H         9.1224943459        4.4883655174      -16.1702842494
 H         9.0463292140        3.0119636478      -14.1078311903
 H         7.6878948316        2.3158741273      -14.8350951436
 H         4.5319334523        4.1815777509      -12.4409775073
 H         4.9920894534        4.8075204159      -10.9642354449
 H         2.9916970295        3.4048544608      -10.0154654253
 H         3.2038419842        2.4023786660      -11.3887651605
 H        -2.6037253319        3.3444019928      -10.9453740028
 H        -1.6540576411        1.8543759617      -10.2780411107
 H        -1.9444215114        1.2807900349      -13.1207436669
 H        -3.1093786262        2.4909316476      -12.9986233806
 H        -3.8854488776       -2.1112924440       -9.4603442726
 H        -4.6977867514       -0.5757359602       -9.6716869685
 H        -4.1827662684        0.1258052391       -7.5428518032
 H        -2.8596491023       -0.8872575559       -7.1323677620
 H        -2.6833278578       -3.7488747594       -4.0010592555
 H        -2.3048911799       -2.7851180616       -5.3525181548
 H        -1.0798938355       -4.5448743643       -6.0179712398
 H        -2.4520220270       -5.2156129774       -6.6480284520
 H        -4.5562938584       -8.6451436751       -6.1135320085
 H        -3.2611402208       -9.7245877192       -6.5477937781
 H        -4.9140920741       -9.8586322705       -8.3228913118
 H        -3.4387221386       -9.0721141535       -8.8303374466
 H        -8.7762817084       -7.8678447389       -9.6914464534
 H        -8.3144253076       -7.7350457055      -11.3203032986
 H       -10.3692223704       -6.7012038580      -11.1031231790
 H        -8.9424263254       -5.6100942614      -11.6334465684
 H       -11.8398694857       -5.8801500942       -6.1718941386
 H       -11.0228855164       -4.6731100352       -5.2597993751
 H       -10.4738223355       -6.5838368027       -4.0375596504
 H        -8.9869544668       -6.5184873211       -5.1476344726
 H       -12.3205424422      -11.7541848823       -4.3134307364
 H       -13.3132375306      -10.5361987008       -5.3259890754
 H       -14.3616036876      -11.6393802966       -3.3393307062
 H       -14.2758303048       -9.9684670968       -3.0631685470
 H       -13.1733220823       -8.7216563565        1.4586764054
 H       -13.4295938519       -8.6755966412       -0.2205917998
 H       -11.8462027506       -8.4843529973        0.4034282686
 H       -15.1128119486      -10.5574980786       -1.1003350159
 H       -14.8949215438      -11.1880223595        0.5550645552
 H       -15.1665840614      -12.3617519071       -0.7559959816
 H       -12.7076146248      -13.3803992020        0.6476218832
 H       -11.4935835489      -13.1041443091       -0.7344917047
 H       -13.0531171519      -13.6698134849       -1.0908217458
 H       -10.1986472441      -11.6157111144       -5.2478794750
 H        -8.9716328996      -10.6249522383       -6.1238038001
 H       -10.6229327805      -10.8435424063       -6.7697542434
 H        -9.5481158633       -8.5781709616       -3.2134081223
 H        -8.3050777334       -9.2605300539       -4.3482911015
 H        -9.1282890241      -10.3509650636       -3.4331791567
 H       -11.0282901826       -3.0507014046       -8.7272510117
 H       -12.1108589193       -4.0300287342       -7.3934904635
 H       -12.4695054141       -3.9443050846       -9.1205452101
 H       -12.3993492906       -6.3797062969       -9.4921891618
 H       -12.2427843254       -6.6939065947       -7.8093401411
 H       -11.0145778529       -7.1488408943       -9.0561375096
 H        -3.7147174824       -7.4533547534      -10.9717178188
 H        -4.3515769220       -5.8689724920      -10.6298685015
 H        -4.9315497610       -6.7298193231      -12.0385507853
 H        -4.8740418821       -9.4194241847      -11.0883344124
 H        -6.4585966877       -8.9794783133      -11.7156581049
 H        -6.4283868406       -9.6967267540      -10.1606234235
 H         0.3192912148       -7.3414374980       -5.0619231185
 H        -0.2783026329       -7.1036170046       -6.8389998933
 H        -0.3393682962       -8.6463881457       -6.0601700535
 H        -1.7513910368       -8.4453105387       -3.4763960126
 H        -1.9985922221       -9.5872251113       -4.8189462874
 H        -3.3415300644       -8.6630463447       -4.1181684111
 H        -4.0105954960       -1.4955233164       -3.8282954593
 H        -4.8558950567       -0.3130882852       -4.8868892013
 H        -3.3853595194       -0.8469585928       -5.3330094649
 H        -6.9587077312       -3.1239996880       -6.0148202596
 H        -6.9191203174       -1.6338393829       -5.0246396915
 H        -6.3843485360       -3.2339897595       -4.3565689168
 H        -3.9890086524       -2.0183455851      -12.9743126058
 H        -4.8143870040       -1.4939200045      -11.5258308885
 H        -3.4998558011       -2.6197053853      -11.3732337592
 H        -0.9127001573       -1.6316374964      -12.0188469497
 H        -0.7637968274        0.0451655442      -11.9018294418
 H        -1.6606113044       -0.6968169992      -13.3541310609
 H         1.2037904814        2.4328139233       -9.6511292528
 H        -0.3737965558        3.0192157326       -9.0055286193
 H         1.2651705259        3.8953641682       -8.6937362562
 H        -0.9881163071        5.6788035612      -10.0478557861
 H         0.0344133885        6.0785647438      -11.4436667238
 H         0.6439998561        6.0066470594       -9.7952279264
 H         6.9837487574        1.2149160736      -13.0031497607
 H         7.7086665075        0.7805980003      -11.4267224222
 H         8.7507517797        1.6607462287      -12.5382364529
 H         8.8565142639        3.5799740634      -10.7826729989
 H         7.6367254492        2.8065795808       -9.7739243282
 H         7.2232393422        4.3859096850      -10.4212022743
 H         8.9056434370        4.7154283698      -18.5275470084
 H         7.7919312889        5.2122003274      -19.7941388337
 H         7.6887132320        3.6024590655      -19.1399572319
 H         6.5967208054        6.9455427452      -16.4758261606
 H         6.6758120827        7.1347482403      -18.2577945007
 H         8.2531085169        6.8453136195      -17.2483350589
 H        -0.6447011480        2.6851648384      -18.4133305052
 H         0.4239515010        2.5452010118      -17.0029656631
 H         1.1388485562        2.6055972967      -18.6988852595
 H         1.1088569215        4.4046155368      -19.9299482611
 H         0.2513177722        6.0805728820      -19.6958735723
 H        -0.6936737932        4.5837610876      -19.9208336178
 H        -3.6859511493        9.4198623625      -15.3087737505
 H        -3.0111904818        9.6956271593      -16.8360342825
 H        -2.8513144448       10.8231530000      -15.6495746635
 H         0.6530935029        9.3007473785      -15.5844813498
 H        -0.2651257666       10.9320469586      -15.5548220839
 H        -0.0417710866        9.8608159131      -17.0500710983
 Na        0.3695620233        5.3552870819      -14.2405204024
 Na       -6.5991468016       -4.9248480499       -7.7684489804
