232

 C        -1.4181797760        9.1573250745      -12.9081289929
 C        -1.2241627541        8.3731232091      -14.2016511490
 O        -0.7366337626        7.2273001745      -14.1342330378
 C        -1.7353200058        8.9213716720      -15.5108874057
 C        -1.4754268566        7.7979080158      -16.6432150464
 O        -0.7001599542        7.9352346903      -17.6024529821
 C        -2.3901846836        6.6606961989      -16.5762228452
 C        -2.0460194559        5.4283486929      -17.4827508151
 C        -0.7546329322        4.6720378428      -16.9527004420
 O        -0.7721376703        4.0208367738      -15.8820994426
 C         0.5794869974        4.5040444246      -17.8228945596
 C         1.7833566921        5.2274884656      -17.0975869743
 O         1.9473410621        5.3413202041      -15.8863274619
 C         2.9617029770        5.5786054016      -18.0688277981
 C         4.3326886061        6.0356796949      -17.5203202621
 C         5.5319979219        5.2098665025      -18.2094363122
 O         5.3461347699        4.6039636181      -19.2040452739
 C         6.9476270523        5.2999240866      -17.5487761953
 C         7.1617340139        4.0492017508      -16.6163554349
 O         6.3008551937        3.2202219017      -16.4470231295
 C         8.4685856154        3.8982202861      -15.8616236428
 C         8.3254277660        2.9975548347      -14.6186329999
 C         7.3229328373        3.6060586252      -13.5980156652
 O         6.8595029308        4.7159340521      -13.5720140258
 C         6.8639938893        2.6292708831      -12.4307501864
 C         5.2836527413        2.4522769086      -12.1386888412
 O         4.8944527072        1.2844492461      -12.0334997029
 C         4.3553069777        3.6410245200      -11.9789002539
 C         3.1561122065        3.4168852077      -11.1081791829
 C         1.9017571451        3.9805854056      -11.7117031545
 O         1.9710178273        4.5326867838      -12.7922689250
 C         0.5582544817        4.1415115754      -10.7871941154
 C        -0.6537396773        3.5710243870      -11.6827106421
 O        -0.8853751593        4.1889672791      -12.6746683800
 C        -1.1520297662        2.1512946095      -11.5412919858
 C        -2.4275326179        1.9075704653      -12.3839667876
 C        -3.4140125234        0.6954917743      -12.0843968428
 O        -4.5960525034        0.8952595160      -11.8939258867
 C        -2.9436755965       -0.7785453386      -11.7884549320
 C        -2.9559045549       -0.6990655323      -10.2159141561
 O        -1.9969455167       -0.1500422641       -9.7352462925
 C        -4.2371136808       -0.9264543617       -9.4439552054
 C        -4.0021129182       -1.1492783344       -7.8913320489
 C        -5.1799302062       -1.9206061124       -7.2986314329
 O        -5.9606204418       -2.4405160367       -8.0186638836
 C        -5.0772636010       -2.3287246067       -5.7639728143
 C        -4.2213700960       -3.6792196950       -5.8308502955
 O        -4.6875035785       -4.7080069312       -6.2572898049
 C        -2.7782425542       -3.5893616112       -5.2933924456
 C        -1.9865735946       -4.8939556862       -5.5878923737
 C        -2.3231116362       -6.1490806549       -4.7696377673
 O        -2.8636017590       -6.0506114532       -3.7079918281
 C        -1.7677401536       -7.5008489266       -5.3024278963
 C        -2.5116234691       -7.7791815232       -6.6772585380
 O        -2.2870839628       -7.1780854888       -7.7070442617
 C        -3.5848315468       -8.8741652819       -6.6941051955
 C        -4.3308877589       -8.9229257163       -8.0581926817
 C        -5.1263821881       -7.6724908817       -8.4040879749
 O        -5.3697947298       -6.7988812273       -7.6224224669
 C        -5.4780912428       -7.4111006824       -9.9541988294
 C        -6.6862916662       -6.5771129661       -9.9783643575
 O        -6.5844509802       -5.3515365520       -9.9751743196
 C        -8.0481802829       -7.2567596280       -9.8640486423
 C        -9.1024435619       -6.3773370799      -10.5918041271
 C        -9.6565032758       -5.2471702206       -9.7073767150
 O        -9.1132561209       -4.2062948045       -9.5812942580
 C       -10.9110708986       -5.4160755143       -8.6553333985
 C       -10.1246936675       -5.4892257128       -7.2334963562
 O        -8.9163752327       -5.3697075637       -7.0737833727
 C       -11.1168192108       -5.5100387743       -5.9250185463
 C       -10.5369013541       -6.5971535080       -5.0243559954
 C       -10.5416544159       -7.9350762960       -5.6461762448
 O       -10.2174117375       -8.0344826158       -6.8154066383
 C       -10.7987861991       -9.2353327889       -4.7943420970
 C       -12.1859443850       -9.1969399752       -4.1420044761
 O       -12.4731938476       -8.1842122785       -3.5730046196
 C       -13.1595002844      -10.4272427310       -4.2586879082
 C       -13.7881646024      -10.6455138366       -2.8869428444
 C       -12.7114632728      -11.2282878141       -1.9596854053
 O       -11.4970416807      -11.3819368436       -2.2374650954
 C       -13.2010970708      -11.5397102551       -0.5606276742
 C       -12.2302664404      -10.7448908332        0.4614761642
 O       -11.5276702099      -11.3339312084        1.2284066353
 C       -12.2563775230       -9.2338468657        0.5315664148
 C       -14.6795058119      -11.0946254285       -0.3253486299
 C       -12.8234267042      -12.9615898916       -0.2515578045
 C       -10.4964947232      -10.5081063191       -5.5834891248
 C        -9.7121905950       -9.2751444508       -3.6025306127
 C       -11.6884445323       -4.0809930863       -8.7010216231
 C       -11.7518132854       -6.6440585902       -8.8779620912
 C        -4.3754894556       -6.5780221222      -10.5778157244
 C        -5.6502654731       -8.6903524543      -10.9193269563
 C        -0.2515064144       -7.4810632945       -5.6849107517
 C        -2.0118239285       -8.6731551388       -4.2985571692
 C        -4.4150016768       -1.2061338943       -4.9133586411
 C        -6.4497122076       -2.7158998037       -5.2065163467
 C        -4.0493240503       -1.6973355052      -12.5341183967
 C        -1.5497313266       -1.0945786929      -12.2824316138
 C         0.7072683953        3.2821519861       -9.5182631203
 C         0.5377889056        5.6759531931      -10.4687496029
 C         7.4499039237        1.1841817368      -12.4916869867
 C         7.4347658841        3.4332972018      -11.1201161922
 C         8.0238522237        5.3572262582      -18.5883743312
 C         7.0042277356        6.5835188725      -16.6479301831
 C         1.1531074406        3.0597997123      -17.8717502144
 C         0.3579895184        5.0861548905      -19.3149626134
 C        -3.1527175308        9.3389172568      -15.5147803167
 C        -0.8075004956       10.1666091315      -15.8286162813
 H        -1.2664492751        8.5941395456      -11.9439248374
 H        -2.3996114048        9.6434919718      -12.7443591567
 H        -0.7096321408        9.9794694602      -12.7633146295
 H        -3.4410308842        6.8547955465      -16.7846657527
 H        -2.4475681320        6.2492187004      -15.5595627385
 H        -2.1035040607        5.8050354544      -18.5289793005
 H        -2.8177935812        4.6357919935      -17.3416110291
 H         2.4981994260        6.3823122900      -18.6686577984
 H         3.3776687159        4.8011138126      -18.7310477163
 H         4.3713867830        5.9622274016      -16.4660796653
 H         4.5036445082        7.0964023526      -17.6383551314
 H         8.9584029517        4.8728645588      -15.5966668841
 H         9.1238044328        3.4157697661      -16.6889974349
 H         9.2446758848        2.8137152864      -14.1151115612
 H         8.0414127106        1.9701152901      -14.8548978132
 H         4.1606504151        3.9939034336      -12.9655492448
 H         4.8317276723        4.5810590085      -11.6615086884
 H         3.3671354837        3.9278256215      -10.2024609595
 H         2.9225607674        2.3554763400      -10.8195391277
 H        -1.3288484978        1.8924109220      -10.4522737363
 H        -0.3987326701        1.3171281088      -11.8349540351
 H        -2.0527918119        1.6364560238      -13.4041844586
 H        -3.1014701803        2.7177125979      -12.3135012572
 H        -4.6094207145       -1.8244118705       -9.8437601577
 H        -4.9826452157       -0.0883912117       -9.6183079209
 H        -3.7654088046       -0.1792209349       -7.3434181665
 H        -3.0405056137       -1.6339686701       -7.8078078472
 H        -2.8636050536       -3.3275463636       -4.2026569967
 H        -2.2462368607       -2.7802096814       -5.7019388150
 H        -0.8829715652       -4.8007315894       -5.4099786532
 H        -2.1098257160       -4.9440859796       -6.6485913897
 H        -4.4353950219       -8.6821416919       -5.9399393858
 H        -3.2706710497       -9.9373207573       -6.4414296352
 H        -5.0335146940       -9.7690144591       -8.0450820768
 H        -3.7042399805       -9.1606559408       -8.9252884260
 H        -8.3640940595       -7.4204331567       -8.8911484630
 H        -8.0390940418       -8.2758437804      -10.3410228281
 H        -9.9343821437       -7.0720793153      -10.9820627001
 H        -8.5641529207       -6.0655345119      -11.5438901521
 H       -12.0602890532       -6.0062742981       -6.2254905304
 H       -11.2728818900       -4.5044939757       -5.4924589982
 H       -11.1291637387       -6.6036634531       -4.0975002980
 H        -9.4987010870       -6.3686354152       -4.8265471181
 H       -12.4997903274      -11.2975178036       -4.4717737916
 H       -13.9302648557      -10.3388245101       -4.9966598220
 H       -14.5507922430      -11.4108579631       -2.9550733822
 H       -14.2234430752       -9.6654203598       -2.6578814502
 H       -13.1129096462       -8.8663022711        1.1275160268
 H       -12.3046362758       -8.6470110879       -0.3297372222
 H       -11.4268901411       -8.8550324901        1.1198816143
 H       -14.6049556533       -9.8934265817       -0.3673011867
 H       -15.0558045183      -11.3387270108        0.6798911251
 H       -15.3739468126      -11.4179870353       -1.1282416306
 H       -12.9137979132      -13.2048663643        0.8322681304
 H       -11.7560108425      -13.1833690348       -0.3697823553
 H       -13.4180097553      -13.6165701591       -0.8839967141
 H       -10.5770769015      -11.2303958775       -4.8225598606
 H        -9.4552366193      -10.4630693709       -6.0389028934
 H       -11.0697722993      -10.6495928965       -6.4393602917
 H        -9.8705549476       -8.5631950993       -2.7842869736
 H        -8.6833464487       -9.3053956693       -3.9733954645
 H        -9.7960778853      -10.3436832330       -3.2047502612
 H       -11.0369084741       -3.2962760348       -8.2876491478
 H       -12.6736733702       -4.3196690418       -8.2855921963
 H       -11.9345643686       -3.9474191332       -9.7222053116
 H       -12.1917896488       -6.5176229028       -9.8343417161
 H       -12.4976150473       -6.8317426161       -8.1223500655
 H       -11.0562836587       -7.5343236684       -8.7684721099
 H        -3.4534655396       -7.0489100718      -10.4440635738
 H        -4.2357717323       -5.5828660207      -10.1376677831
 H        -4.4278141072       -6.4988927664      -11.6762024622
 H        -4.6250995464       -8.9695424525      -11.2240794945
 H        -6.2468513646       -8.4713194753      -11.8543344826
 H        -6.0669520433       -9.5423105833      -10.4759432273
 H         0.4346689940       -7.3017826570       -4.7770217444
 H         0.0693814176       -6.6893139404       -6.4409078262
 H        -0.0588403391       -8.4640125415       -6.1364769724
 H        -1.4651559645       -8.4486407137       -3.3707281314
 H        -2.0129372413       -9.7307417848       -4.5727821514
 H        -3.0359007728       -8.5340639650       -4.0076503011
 H        -4.5906774335       -1.5344201664       -3.8882931406
 H        -4.9245418692       -0.2477977490       -4.9657629300
 H        -3.3692841141       -0.9767035868       -5.1077086246
 H        -6.6715426597       -3.7843142467       -5.2627364285
 H        -7.2018712149       -2.0734560098       -5.5674416095
 H        -6.3081232841       -2.6765280598       -4.1619945773
 H        -4.2643962966       -1.3858581364      -13.5310999941
 H        -5.0193066028       -1.7388101172      -11.9312180839
 H        -3.6507668085       -2.7125057952      -12.5831665968
 H        -1.2743532141       -2.1512002462      -12.2301573695
 H        -0.8325371079       -0.4489258193      -11.7795784327
 H        -1.5929601012       -0.8558314358      -13.3150218248
 H         1.0108246597        2.2248961443       -9.7049854749
 H        -0.2477718728        3.2300144924       -9.0566579266
 H         1.2523874931        3.7266002447       -8.6979416325
 H        -0.3011585058        5.9163561281       -9.7837798029
 H         0.3696303945        6.2906045032      -11.3233679496
 H         1.4978322456        5.9460303846      -10.0735495570
 H         6.8702433800        0.6468228247      -13.2988733090
 H         7.3323993943        0.5889711072      -11.5789522575
 H         8.4705496827        1.3511211783      -12.6410537935
 H         8.5265837718        3.2406920422      -11.1626171430
 H         7.1935248807        2.8272780232      -10.2451513485
 H         7.0810758299        4.3707759330      -11.0637523388
 H         9.0217104709        5.3801104255      -18.1100627074
 H         7.9459728823        6.2405107562      -19.1167755370
 H         8.0057062169        4.4725511596      -19.2384196694
 H         6.3691023135        6.3890360874      -15.7530246516
 H         6.5956885815        7.3542733774      -17.2330478462
 H         7.9994733857        7.0216184804      -16.4957770561
 H         0.6063838323        2.4744946852      -18.5392655188
 H         1.0545405060        2.7726030546      -16.8155184000
 H         2.1754955973        2.9096586182      -18.2712521699
 H         1.1918854370        5.1214978479      -19.9893700677
 H        -0.0229305922        6.1077245678      -19.0573202803
 H        -0.3929497652        4.5766857411      -19.8242964492
 H        -3.9293210728        8.5571781534      -15.5852565953
 H        -3.3397991884        9.9786802851      -16.3650207697
 H        -3.6259838738        9.9125289370      -14.7184597581
 H         0.1324356808        9.6983076999      -16.2218361712
 H        -0.8618688312       10.7907556545      -14.9861370898
 H        -1.2876222276       10.7393399644      -16.6051720810
 Na        0.4346388216        5.2745225648      -14.2519398705
 Na       -6.8586759351       -4.6962057812       -7.7766837382
