232

 C        -1.3421259145        9.0933817902      -12.8282431942
 C        -1.1794585071        8.2870418945      -14.0985416462
 O        -0.5987609502        7.2489155865      -14.0479815092
 C        -1.6861288147        8.9130195444      -15.5527402164
 C        -1.5091687167        7.8078526895      -16.6990581941
 O        -0.8271799790        8.1103455220      -17.6446479817
 C        -2.4492658124        6.5555611569      -16.6947967724
 C        -1.9167379508        5.2124835399      -17.4974858929
 C        -0.6225960923        4.5477695864      -16.9955792751
 O        -0.7120787310        3.9190908760      -15.8987623780
 C         0.6625963245        4.5242060051      -17.7548230969
 C         1.9220132044        5.3317876726      -17.1731136544
 O         1.9314473417        5.5825045372      -16.0167345390
 C         3.0858008779        5.5663528452      -18.1062485195
 C         4.3747385046        6.0857018879      -17.4702037677
 C         5.5061631288        5.2841866087      -18.0382302030
 O         5.2772224987        4.6657543174      -19.0519553134
 C         6.9322377095        5.4145533350      -17.3963598660
 C         7.1518818923        4.0359838949      -16.5391658989
 O         6.2270838043        3.2645060712      -16.5005477586
 C         8.5196428236        3.7867900116      -15.8790942530
 C         8.1834835837        2.8488655573      -14.6766646288
 C         7.2583284140        3.5025177486      -13.6636127474
 O         6.9238037147        4.6823742747      -13.8242413343
 C         6.8599731701        2.5671054637      -12.5059459197
 C         5.3250556058        2.3959823739      -12.3148852414
 O         4.8468466661        1.3044344890      -12.2135471027
 C         4.4512046761        3.6670212418      -12.1117693350
 C         3.2671856224        3.3340309997      -11.1217805233
 C         1.9252997441        3.9810358528      -11.6979463281
 O         1.9180958032        4.4067021917      -12.8313290654
 C         0.6523469379        4.0687894506      -10.7747457481
 C        -0.5304754557        3.5551671839      -11.7651544278
 O        -0.8462446411        4.3099308248      -12.6676042504
 C        -1.0415091211        2.0967190264      -11.7135989176
 C        -2.3678856500        1.8508487812      -12.5097768981
 C        -3.4665506475        0.8440527730      -12.0711370806
 O        -4.6074048838        1.2083880795      -12.0347315500
 C        -2.9832142671       -0.7246744641      -11.7890570069
 C        -2.9922570799       -0.6653956943      -10.2853653604
 O        -2.0721795405       -0.1685204041       -9.6554581809
 C        -4.3072603393       -0.9989244253       -9.5194659026
 C        -4.1357775520       -1.1168745628       -7.9161015535
 C        -5.2515651793       -1.9640413770       -7.3657382114
 O        -6.1770752753       -2.4048425408       -8.0628592150
 C        -5.0946906869       -2.3182123780       -5.8118287640
 C        -4.1804856768       -3.6313825927       -5.8572566596
 O        -4.7219915054       -4.6185887377       -6.3235985484
 C        -2.8349947786       -3.6675468877       -5.2491894895
 C        -2.0035616962       -4.8931881528       -5.6714321687
 C        -2.2439021649       -6.1396157443       -4.7206113191
 O        -3.0135873750       -6.1060145711       -3.7865531003
 C        -1.7438955240       -7.4967014257       -5.2947442857
 C        -2.5501826766       -7.7254888911       -6.6413456718
 O        -2.1187150114       -7.2379902310       -7.6704173208
 C        -3.6965605608       -8.7570524182       -6.5964389977
 C        -4.3407751560       -8.9003033194       -8.0102631776
 C        -5.0435512040       -7.6468149566       -8.4158622534
 O        -5.4925157214       -6.9377458033       -7.5011891754
 C        -5.3120715960       -7.3641979190       -9.9310083793
 C        -6.6417039534       -6.5196612340       -9.9529779462
 O        -6.4678419938       -5.2979572080       -9.9649116243
 C        -8.1091795227       -7.1244260170       -9.8810899890
 C        -9.2202520276       -6.3792566343      -10.5689756992
 C        -9.6533860976       -5.2332921634       -9.6474212080
 O        -8.9122814176       -4.2179349283       -9.6646914688
 C       -10.8431695762       -5.4111143217       -8.6761466002
 C       -10.2479758789       -5.4762737975       -7.2748968978
 O        -9.0342918997       -5.5698475930       -7.0396037862
 C       -11.1144790812       -5.5113945935       -6.0488877761
 C       -10.6352090757       -6.5065028776       -4.9747248164
 C       -10.4288564078       -7.9445398665       -5.6148755899
 O       -10.0779780436       -8.0316723245       -6.7580211136
 C       -10.7658676129       -9.2009533811       -4.7370272041
 C       -12.1613496892       -9.1250830090       -4.0736667884
 O       -12.6471432365       -8.1902653568       -3.4733186858
 C       -13.1539279642      -10.3154489269       -4.2241731196
 C       -13.7608941860      -10.6290934037       -2.7965314563
 C       -12.7609944178      -11.1939203548       -1.8179109128
 O       -11.6299600309      -11.4131041906       -2.1812558209
 C       -13.2389519668      -11.4931498843       -0.3712769778
 C       -12.1687698159      -10.7306848596        0.5376464846
 O       -11.3283905733      -11.3762129826        1.0658120280
 C       -12.1531507951       -9.2209949613        0.4141648154
 C       -14.7240261421      -11.1658076137       -0.1513218431
 C       -13.0461831282      -13.1149287473       -0.2660802155
 C       -10.6960592029      -10.5263094171       -5.5778818018
 C        -9.8014192265       -9.0152427921       -3.5790057001
 C       -11.7719027583       -4.0676868658       -8.7022810769
 C       -11.7355815787       -6.7079802678       -8.7981121522
 C        -4.2104821327       -6.5275280514      -10.5628228610
 C        -5.4000040243       -8.6990280882      -10.8230165882
 C        -0.2371846340       -7.4374828618       -5.5702485913
 C        -1.9367784558       -8.6924893244       -4.3588722606
 C        -4.3243408712       -1.2023267900       -5.1165656503
 C        -6.3959564744       -2.8122340173       -5.1371575806
 C        -3.9519497624       -1.7763089542      -12.4587458084
 C        -1.5852021249       -1.1119024007      -12.2906563541
 C         0.8487956086        3.2945924017       -9.3860803122
 C         0.5260894125        5.6104412044      -10.4579894940
 C         7.4974263500        1.2021037626      -12.6422296601
 C         7.1799700167        3.2305558602      -11.0428802284
 C         8.0108334075        5.5148227239      -18.5053951444
 C         7.1046951713        6.6824930437      -16.4800743169
 C         1.0659814589        3.0334605866      -17.8434019141
 C         0.4580445571        5.0831150410      -19.2026896143
 C        -3.2102602212        9.1885704486      -15.4840842088
 C        -0.9484925523       10.2557518118      -15.8785732669
 H        -1.1551392829        8.6974892805      -11.7954447310
 H        -2.2684285377        9.6800349923      -12.7023683534
 H        -0.5447971806        9.8675938777      -12.8962211878
 H        -3.3748330188        6.7555917418      -17.2421616913
 H        -2.8348895632        6.2751756773      -15.6459207115
 H        -1.8126287223        5.7100164321      -18.4595471051
 H        -2.6110351043        4.4223989166      -17.6388817950
 H         2.6706271106        6.2529838069      -18.8643294201
 H         3.4665211747        4.6997203322      -18.6216295485
 H         4.2831548367        6.0642701012      -16.4055879536
 H         4.6036099557        7.1331715632      -17.6301818513
 H         8.9792065989        4.7402122224      -15.5783761140
 H         9.2201964159        3.2842430491      -16.6456022483
 H         9.0586933273        2.4541813266      -14.1710749955
 H         7.7502466791        1.9375113759      -15.0341736232
 H         4.0613016088        4.0486773900      -13.0903888222
 H         4.9120101970        4.5680622226      -11.8729985470
 H         3.5267945792        3.6552472805      -10.0182369007
 H         3.0185961021        2.2809244304      -11.1070911304
 H        -1.0028441952        1.6795901038      -10.6244289518
 H        -0.2249452450        1.4935092430      -12.1909611686
 H        -2.1334836494        1.5197314469      -13.4585890623
 H        -2.9858070964        2.7939520710      -12.4177887171
 H        -4.7783682911       -1.8974658650       -9.9533823151
 H        -4.9833497856       -0.1850159278       -9.6091848601
 H        -4.0137657163       -0.0684479778       -7.4855417513
 H        -3.0257781225       -1.5827633238       -7.6388573596
 H        -2.9392450515       -3.7473552711       -4.1759513786
 H        -2.3055253065       -2.6871946533       -5.3860173718
 H        -0.9707861311       -4.6638612240       -5.8266224420
 H        -2.4414979172       -5.1628675903       -6.6559175577
 H        -4.3999502305       -8.4770032720       -5.9390318355
 H        -3.3875589745       -9.6979484865       -6.3012290844
 H        -4.9320476441       -9.7381534575       -8.0929158290
 H        -3.5668109770       -9.0667771988       -8.8055139710
 H        -8.3943764823       -7.2331253559       -8.8731348659
 H        -8.1248554942       -8.1355035386      -10.2384692295
 H       -10.0467162507       -7.0918606855      -10.8121949188
 H        -8.7922281277       -6.1190776803      -11.5798536979
 H       -12.1300441332       -5.8406969568       -6.2671834495
 H       -11.0803096506       -4.4748031295       -5.6904820503
 H       -11.3636010244       -6.3550604459       -4.1246323218
 H        -9.6138121770       -6.1551078552       -4.6793717022
 H       -12.5507969844      -11.2117044764       -4.6091898169
 H       -14.0528608447      -10.1153345698       -4.8897427370
 H       -14.6031877874      -11.3514864837       -2.9190483167
 H       -14.1148229752       -9.6227867617       -2.5942794775
 H       -12.9552045539       -8.5500964312        0.6865826965
 H       -11.9563758839       -8.9773355192       -0.6602376054
 H       -11.3295527217       -8.8024858069        0.9414721211
 H       -14.9103361019      -10.2647518402       -0.7574666136
 H       -15.0012314641      -10.8589645066        0.8797189046
 H       -15.3619473852      -11.9678572514       -0.5433577783
 H       -13.0787453693      -13.5023900926        0.7250781585
 H       -12.0560534177      -13.4268663973       -0.5186625422
 H       -13.8249302167      -13.5866782830       -0.9886498316
 H       -10.7762029745      -11.3555991629       -4.8633195745
 H        -9.8069265523      -10.5927810620       -6.1388573618
 H       -11.4525820260      -10.4895673142       -6.3392485741
 H       -10.0927140407       -8.1480866201       -2.9714371770
 H        -8.7798847842       -8.9348625959       -3.9883819873
 H        -9.7286104229       -9.9480255570       -2.9046667304
 H       -11.0732102494       -3.2527730562       -8.4209137096
 H       -12.6816749337       -4.2660282076       -8.0790770729
 H       -12.1793094940       -4.0349878013       -9.7082466652
 H       -12.2916933715       -6.6143521815       -9.6955944746
 H       -12.4238099564       -6.5553445705       -8.0520124431
 H       -11.3430368228       -7.6421056983       -8.4905173189
 H        -3.2299807234       -7.0474895314      -10.4808476707
 H        -4.0395750991       -5.5904313769      -10.0453200935
 H        -4.2868783482       -6.3570615751      -11.6288344007
 H        -4.5182679653       -8.9498542547      -11.2580391125
 H        -6.1912495156       -8.5607663617      -11.5918109295
 H        -5.7192607522       -9.6043315118      -10.2347174520
 H         0.2797483423       -7.2092495365       -4.6026508497
 H         0.0870895147       -6.6470997523       -6.2483782816
 H         0.1062821443       -8.4280791216       -5.9753853918
 H        -1.4235433790       -8.3521566661       -3.4771850277
 H        -1.7568156670       -9.7301375877       -4.6247232843
 H        -2.9988319044       -8.7234740124       -4.0309893081
 H        -4.2186667313       -1.4145536245       -4.0678125714
 H        -4.9752464977       -0.3292360795       -5.0959672957
 H        -3.4113872923       -0.9151217835       -5.5395714786
 H        -6.3933252660       -3.8864347713       -5.0805485925
 H        -7.2526327473       -2.3947759456       -5.5734192338
 H        -6.3067419315       -2.6335671369       -4.0645112805
 H        -4.3037186866       -1.4090856981      -13.4385480288
 H        -4.7823361021       -2.0912643475      -11.8677149256
 H        -3.3729648329       -2.6462068690      -12.6972565947
 H        -1.5232715233       -2.1852532822      -12.1519023854
 H        -0.8377148805       -0.5675393354      -11.7111239250
 H        -1.4415278288       -0.9938995722      -13.3832262269
 H         1.0919593491        2.1691276411       -9.4822226472
 H        -0.0417716046        3.3433978502       -8.8252113696
 H         1.5171939012        3.8034477731       -8.6613094340
 H        -0.2105466154        5.8412485640       -9.7514451923
 H         0.3489005941        6.2319455699      -11.3063269905
 H         1.5649016774        5.8497607168      -10.1546741984
 H         6.9597116196        0.6037822093      -13.3829156342
 H         7.2885330205        0.6991868838      -11.6714169763
 H         8.5856987108        1.3657109686      -12.7545585059
 H         8.2137346925        3.0514468094      -10.7491892424
 H         6.6329655010        2.6258536079      -10.3591945505
 H         6.8070799571        4.3063211512      -11.0201230140
 H         8.9867169107        5.6847175580      -18.0709978229
 H         7.8029242021        6.4119086555      -19.1003729090
 H         8.0635639583        4.6356882818      -19.0801729549
 H         6.4505389427        6.4535311044      -15.6113342581
 H         6.8380527338        7.6619168405      -17.0135894255
 H         8.0909331755        6.8881444860      -16.2886431902
 H         0.5455996031        2.5079683346      -18.6975013182
 H         0.7950219252        2.6728503275      -16.8455422377
 H         2.0290314360        2.8399731868      -18.0825884543
 H         1.3182582874        4.8489172733      -19.8314470867
 H         0.3405913181        6.1754772150      -19.1128485488
 H        -0.4129171079        4.6371553800      -19.7575245831
 H        -3.8558149888        8.3486105793      -15.2299981944
 H        -3.6484734788        9.5925631921      -16.3878484973
 H        -3.5879347633        9.9066042208      -14.7704676910
 H         0.0964492217       10.1216708305      -16.0514846703
 H        -1.4088127114       10.9390236174      -15.1611449656
 H        -1.4551815794       10.6057199079      -16.7859873074
 Na        0.3582727715        5.3042813778      -14.2859614645
 Na       -6.9514414509       -4.8596483617       -7.7125743164
