232

 C        -1.2947385963        9.1595715808      -12.9118480412
 C        -1.1195905571        8.3657497057      -14.1516053112
 O        -0.5336835205        7.3153487243      -14.0379842536
 C        -1.7633991843        8.7934522987      -15.5045999496
 C        -1.5668487444        7.8051593229      -16.7535890880
 O        -0.9075547107        8.1482733883      -17.6870533311
 C        -2.3191566885        6.4959198855      -16.7682510410
 C        -1.7948478127        5.2761542040      -17.4874682421
 C        -0.5747955645        4.6005648457      -16.9030714285
 O        -0.6573090679        3.9306320093      -15.8963151942
 C         0.7404196250        4.5180333935      -17.7711843079
 C         1.9437108542        5.3802429061      -17.1608975561
 O         1.9392012611        5.8487730959      -16.0373072029
 C         3.0309080114        5.6702530033      -18.0908394946
 C         4.2912638052        6.1100790267      -17.3572376459
 C         5.5495652616        5.4926045561      -17.9707941208
 O         5.4866421939        4.6321028989      -18.8896180549
 C         6.9417339259        5.5221762336      -17.2607986003
 C         7.1061654825        4.1340516064      -16.5815310409
 O         6.1819610210        3.3382144236      -16.5468880063
 C         8.4304881562        3.7439093747      -15.9670588347
 C         8.1669942942        2.7528687347      -14.8218009296
 C         7.2977316324        3.4175545999      -13.7094939834
 O         6.8973136747        4.5653090878      -13.9208139505
 C         6.8283230201        2.5036523802      -12.4209153307
 C         5.2752844793        2.3682921465      -12.4729226314
 O         4.7292381901        1.2872041417      -12.4287356510
 C         4.4763123756        3.6308175845      -12.2943447648
 C         3.3418210417        3.3092866068      -11.2634549199
 C         2.0329977697        3.9091203396      -11.6956239838
 O         1.9081391590        4.2907925667      -12.8374653180
 C         0.7784794478        4.0088508182      -10.7969361845
 C        -0.3499780228        3.5312666425      -11.7678351765
 O        -0.9446033290        4.3422303191      -12.5013368471
 C        -0.9709907153        2.0382554161      -11.7555427051
 C        -2.2212911294        1.9670581246      -12.7158839001
 C        -3.3439879520        0.9359539467      -12.2061365013
 O        -4.5041385149        1.2910566506      -12.1155462048
 C        -3.0242801495       -0.6430474395      -11.8115107315
 C        -3.0798790911       -0.5888436368      -10.1965697822
 O        -2.0826728975       -0.2548742573       -9.5556587062
 C        -4.4328820868       -1.0918811367       -9.5958563680
 C        -4.3665961344       -1.0826906070       -8.0733525165
 C        -5.3123511556       -2.0237581399       -7.4017820315
 O        -6.3558787482       -2.4846252029       -7.9302511546
 C        -5.0813489301       -2.3198610767       -5.8593332459
 C        -4.1732061148       -3.7112476795       -5.8977898877
 O        -4.6831108394       -4.6335820073       -6.4980025740
 C        -2.8561746813       -3.7828107748       -5.1669189001
 C        -2.0393811744       -4.9584091767       -5.6684514644
 C        -2.3994230564       -6.1646337360       -4.8697266871
 O        -3.0670867383       -6.0888932450       -3.8396497605
 C        -1.6838369437       -7.5430659379       -5.2441074760
 C        -2.3907155622       -7.9005841995       -6.6390313340
 O        -2.0693706784       -7.2754081649       -7.6393649363
 C        -3.6777772900       -8.6396118635       -6.5735195025
 C        -4.2352458981       -8.9181026336       -7.9727261903
 C        -5.0827546262       -7.6419095617       -8.4306160696
 O        -5.6950189002       -7.0107041498       -7.5987436731
 C        -5.2642515918       -7.3388980894       -9.9464567335
 C        -6.6118919763       -6.4256615293      -10.0447929241
 O        -6.4985863127       -5.2421834570       -9.9530527882
 C        -7.9405420704       -7.1674142745       -9.9461382003
 C        -9.2445758911       -6.4477596343      -10.5509692457
 C        -9.6434186340       -5.1792852424       -9.6472033541
 O        -8.9032419342       -4.1978510398       -9.6201394035
 C       -10.8269341934       -5.3466034291       -8.6557271175
 C       -10.2122840769       -5.4862111752       -7.1604033745
 O        -9.0216772616       -5.6285255876       -7.0349650604
 C       -11.2146514943       -5.4998366356       -6.0025153426
 C       -10.7884094307       -6.5407442788       -4.9462403540
 C       -10.5233813129       -7.9070777400       -5.6235269818
 O        -9.9633190857       -8.0980403740       -6.7170853939
 C       -10.8177183585       -9.0928739377       -4.6481196096
 C       -12.3014319349       -9.0588032010       -4.0618897079
 O       -12.6477858948       -8.0800271566       -3.3989048067
 C       -13.2775631424      -10.2771364015       -4.1574173199
 C       -13.9120384015      -10.5845302836       -2.7840688738
 C       -12.8337988372      -11.2020941970       -1.8072899622
 O       -11.6930223769      -11.4250956018       -2.1428936842
 C       -13.2939712834      -11.5219258486       -0.3483975595
 C       -12.0836863803      -10.8116875275        0.4665509762
 O       -11.1267663491      -11.3852291857        1.0462863830
 C       -12.0958925742       -9.3159663905        0.2926837643
 C       -14.7311075363      -11.1977794344        0.1483639342
 C       -13.2635310718      -13.1273688198       -0.2050938302
 C       -10.6117306888      -10.3755066163       -5.5486204088
 C        -9.7877646785       -8.9597831040       -3.4634544757
 C       -11.7693694993       -4.1191061148       -8.7451495225
 C       -11.6814166025       -6.6071967997       -8.9467792985
 C        -4.0139560074       -6.5015488180      -10.4363692863
 C        -5.2997573604       -8.6833063626      -10.6219469014
 C        -0.1305316914       -7.3595172579       -5.5406678653
 C        -1.9549786019       -8.6522437861       -4.2298376661
 C        -4.3795715371       -1.1667778098       -5.1823059588
 C        -6.4122742396       -2.6622738054       -5.1109951611
 C        -4.0032137205       -1.6761987244      -12.3889947054
 C        -1.5703290053       -0.9701205600      -12.2940451130
 C         0.8600876916        3.3019743572       -9.4878113971
 C         0.4557905695        5.4331126274      -10.4849685734
 C         7.5170287363        1.1383430085      -12.5716554952
 C         7.1677757174        3.0937580230      -11.0517671239
 C         8.0306034075        5.6088915935      -18.4775708529
 C         7.1375844635        6.6609250070      -16.2896384534
 C         1.0348591058        2.9209710118      -17.8906646185
 C         0.5560120224        5.0572513052      -19.3072845768
 C        -3.2860672844        9.0087663138      -15.3181772762
 C        -1.1026479651       10.1319949199      -15.8543886804
 H        -1.2133330728        8.5678380283      -12.0219521496
 H        -2.2910820670        9.5854113586      -12.8353960913
 H        -0.5610255962        9.9429816793      -12.6367588245
 H        -3.3689870652        6.6207367013      -17.1637467327
 H        -2.5027594228        6.0794079136      -15.7596947890
 H        -1.7044301271        5.5551027694      -18.5255717880
 H        -2.5381256444        4.5028637764      -17.5083509933
 H         2.6827160568        6.4120623266      -18.8121401964
 H         3.2779881142        4.7766357298      -18.6491453729
 H         4.1879416614        5.8704390563      -16.2538706705
 H         4.3594915860        7.2026241847      -17.2954559021
 H         8.9043850469        4.6259288612      -15.5471013820
 H         9.1012449030        3.2941450955      -16.6366773574
 H         9.1553126344        2.3943897645      -14.4408360094
 H         7.7339871078        1.8030685436      -15.1636386692
 H         4.0469730519        4.1374105674      -13.1917301915
 H         5.0802039909        4.4867085666      -11.9840153019
 H         3.5304686607        3.6188438996      -10.1792340677
 H         3.1142361331        2.2367433827      -11.2711563484
 H        -1.1302529463        1.6619504135      -10.7653947469
 H        -0.1667873818        1.4260614740      -12.1047193363
 H        -1.9640094702        1.6335410150      -13.7026316902
 H        -2.6934432656        2.9580596407      -12.5796950979
 H        -4.6272695742       -2.1181883683      -10.0223691340
 H        -5.2394207660       -0.4467819774       -9.8587420409
 H        -4.3263627062       -0.0263478695       -7.7319016680
 H        -3.3109162679       -1.4293239229       -7.8264470319
 H        -2.8107762062       -3.9355215884       -4.0856684272
 H        -2.3108976180       -2.7953458547       -5.3485054875
 H        -0.9937458403       -4.7584882528       -5.4409280562
 H        -2.1844394911       -5.1546946114       -6.7548451589
 H        -4.3979369394       -8.0732742909       -6.0117827958
 H        -3.5741741017       -9.5714728227       -6.1455555156
 H        -4.8339816157       -9.8345244259       -7.9459662271
 H        -3.4633846362       -9.1830666867       -8.6645435695
 H        -8.1192064775       -7.2575327852       -8.8151877997
 H        -7.8926647970       -8.1737365973      -10.2179864994
 H       -10.0133898462       -7.1589615338      -10.6712914861
 H        -8.9868949503       -6.1963671836      -11.5503108795
 H       -12.2411165067       -5.6206439518       -6.3130423629
 H       -11.0204068536       -4.5044094735       -5.6108347828
 H       -11.5276215855       -6.5236068688       -4.1285951378
 H        -9.7943037290       -6.1269609628       -4.5953066902
 H       -12.6796013045      -11.1262239545       -4.5127453211
 H       -14.1510858907      -10.0786688665       -4.9004753183
 H       -14.7664957376      -11.2679819144       -2.9443577211
 H       -14.2200931374       -9.5556748475       -2.4184038715
 H       -13.0265314871       -8.8072640051        0.4543644494
 H       -11.7839176839       -9.0025648370       -0.7402042957
 H       -11.4335394465       -8.7729039316        0.9800006321
 H       -15.1917741284      -10.4892354347       -0.3945838251
 H       -14.6864459392      -10.8146424779        1.1601122071
 H       -15.3569348065      -12.0931312746        0.1272777364
 H       -13.3604801715      -13.4562611399        0.8124325572
 H       -12.2455006926      -13.4814500716       -0.3712718316
 H       -13.9811435289      -13.5823811946       -0.8728463121
 H       -10.4722965658      -11.2893468362       -4.9607195748
 H        -9.7495019399      -10.2164854902       -6.1341459476
 H       -11.4630046524      -10.4117106520       -6.2862999214
 H        -9.9659297085       -8.0047761955       -2.9067814578
 H        -8.7593325089       -8.9621969285       -3.9173557988
 H        -9.8281489892       -9.7173540532       -2.7330561686
 H       -11.0950693123       -3.2568803430       -8.7485359615
 H       -12.4818865523       -4.1481770879       -7.9147026099
 H       -12.3789944410       -4.3251220358       -9.6794498099
 H       -12.0868877304       -6.5268371776       -9.9399607302
 H       -12.5362392701       -6.6345878404       -8.2457041334
 H       -11.2435476954       -7.4727520803       -8.5911474856
 H        -2.9904967755       -6.9766202386      -10.4288461721
 H        -3.9256245943       -5.6510460590       -9.7761881373
 H        -4.0888007399       -6.1369703421      -11.4457231533
 H        -4.2862908088       -9.0874182019      -10.8593612260
 H        -5.9064862215       -8.6512112757      -11.4589336633
 H        -5.7476415865       -9.4726968767       -9.9638271766
 H         0.3571793096       -6.9473892105       -4.7018851301
 H        -0.0397393929       -6.5812012623       -6.2639192674
 H         0.4321229940       -8.2368887303       -5.8978453632
 H        -1.3992437815       -8.4235107089       -3.3352411860
 H        -1.5883452798       -9.5998275316       -4.6249343004
 H        -2.9936500229       -8.9407074056       -3.9504615527
 H        -4.0975173676       -1.2971450075       -4.1653432215
 H        -5.1165027289       -0.3670537442       -5.0943387486
 H        -3.4971314189       -0.8013282277       -5.7211109541
 H        -6.5685376155       -3.7111191343       -5.0276079862
 H        -7.2290219416       -2.1271034950       -5.6497002799
 H        -6.3511047563       -2.3652931836       -4.0561326458
 H        -4.3244822296       -1.3691313502      -13.3934362858
 H        -4.8442883404       -1.8477945423      -11.8126284600
 H        -3.5053800336       -2.6254573310      -12.5386267906
 H        -1.4877990704       -2.0283282336      -12.0731111171
 H        -0.9013174747       -0.3869751288      -11.6681359057
 H        -1.3088949926       -0.9086263185      -13.3752607516
 H         1.0193689728        2.2707745031       -9.6096484827
 H        -0.0004701471        3.4757794811       -8.7350401182
 H         1.7020781480        3.7285418626       -8.9195667176
 H        -0.4114922281        5.4990013376       -9.8634802310
 H         0.2170275258        5.9455307432      -11.4315330208
 H         1.3443836029        5.9251709724      -10.1309223626
 H         7.1816915371        0.7030250409      -13.4945945060
 H         7.0450995774        0.5479607151      -11.7980346133
 H         8.6530363266        1.2457419954      -12.4528127792
 H         8.1711877420        2.8266797186      -10.7947268760
 H         6.5132844712        2.6130195421      -10.3059104357
 H         6.9841611176        4.2381302704      -11.0918739653
 H         9.0484615758        5.7078771452      -18.1861139858
 H         7.7669916970        6.5159014047      -19.1020262716
 H         7.9048572705        4.7015004303      -19.0458540596
 H         6.4355727386        6.5620349119      -15.5065340541
 H         7.1613937164        7.6573342806      -16.7931878007
 H         8.1985723102        6.6256519300      -15.9866541368
 H         0.4531074015        2.3827281170      -18.6675502203
 H         0.8939222601        2.5582680252      -16.9067213687
 H         2.0604981830        2.7474780827      -18.2759749199
 H         1.4033879065        4.6338271798      -19.9126818346
 H         0.4972304055        6.1178823800      -19.4486855912
 H        -0.3373051818        4.5185689617      -19.7666358199
 H        -3.8920456019        8.3550591512      -14.7580871804
 H        -3.8524790735        9.1481347817      -16.2330828651
 H        -3.5078224178        9.9435740492      -14.8483102862
 H        -0.0572170100       10.0061912943      -15.7657555881
 H        -1.6517644548       10.9434443999      -15.3628215689
 H        -1.3674860102       10.2730855102      -16.9018489911
 Na        0.3322424854        5.2839521648      -14.3691918070
 Na       -6.9327627245       -4.9189023680       -7.6585826139
