232

 C        -1.2916627887        9.3602908747      -13.1195027813
 C        -1.0610719566        8.4073075903      -14.2514616599
 O        -0.4186944788        7.4080619261      -14.0951005103
 C        -1.8728622822        8.7754073773      -15.5072885957
 C        -1.7471337272        7.7017000764      -16.6181019766
 O        -1.0268898418        7.9585536490      -17.5504487666
 C        -2.2769450365        6.3188553501      -16.4040325385
 C        -1.7222372223        5.3982386418      -17.6230562707
 C        -0.4939023553        4.6808456194      -17.1423997757
 O        -0.6471492723        4.1907338220      -16.0107119350
 C         0.8198736873        4.4934748090      -18.0132854660
 C         1.8068828828        5.4749626661      -17.2575439688
 O         1.6254201167        5.9111636737      -16.1387435161
 C         3.1209961807        5.8772212545      -17.9904640177
 C         4.4097924319        6.2100293334      -17.1525407748
 C         5.6018863608        5.5064782083      -17.8990834588
 O         5.4702272011        4.9406410105      -18.9344507522
 C         7.0532283795        5.5839101830      -17.1895602685
 C         7.1123371452        4.1937580515      -16.5506088296
 O         6.1040819481        3.5148325193      -16.5344246340
 C         8.4428772809        3.6536840587      -15.9914599520
 C         8.1712713272        2.5964928962      -14.8357921951
 C         7.2678819136        3.0975933200      -13.7534456674
 O         6.8682239348        4.2344747840      -13.7256436552
 C         6.9220043105        2.2318291670      -12.4818531518
 C         5.3463945950        2.1630070435      -12.6679485035
 O         4.8041597516        1.1632375069      -13.0483209037
 C         4.4987427565        3.5202995238      -12.4086395053
 C         3.3552548541        3.3972633602      -11.4021459472
 C         1.9152612864        3.9555957641      -11.8997315687
 O         1.8653300934        4.2806490931      -13.0739687288
 C         0.7317386886        3.9210269371      -10.9974356650
 C        -0.5776599847        3.5289570971      -11.7437319544
 O        -1.1425660398        4.3453620894      -12.4356658232
 C        -0.9207963492        2.0937319560      -11.7486994880
 C        -1.9600040473        1.7832931039      -12.7864615682
 C        -3.1955423200        1.0829555805      -12.2391408880
 O        -4.2976819139        1.5340499178      -12.3344562018
 C        -2.9959680922       -0.4679881063      -11.8057573966
 C        -3.1467786037       -0.6963869676      -10.2386816029
 O        -2.3154797931       -0.3864464069       -9.4153961082
 C        -4.6245687003       -1.2755741938       -9.7120307298
 C        -4.7539015292       -0.9687718070       -8.1949194701
 C        -5.5274530695       -2.0354225232       -7.3853723417
 O        -6.4109795977       -2.6456051138       -7.9483205444
 C        -5.1657672076       -2.3388965457       -5.9269277259
 C        -4.2802543496       -3.6526430583       -5.9719347180
 O        -4.6835903832       -4.5487765381       -6.7303715690
 C        -2.9482273906       -3.6803679138       -5.2347111334
 C        -1.9863118424       -4.9102237519       -5.5477215429
 C        -2.3787934366       -6.2348893071       -4.7695674297
 O        -3.2824347359       -6.3128402639       -3.9510719539
 C        -1.5260267588       -7.4762652886       -5.2072590287
 C        -2.3430426052       -7.8183236352       -6.5210294660
 O        -1.8117757272       -7.5536418056       -7.5766365584
 C        -3.6123398156       -8.6623370674       -6.5029914928
 C        -4.3093743859       -8.7901468157       -7.9183820605
 C        -5.2514911159       -7.7307445162       -8.2862267492
 O        -6.0017163748       -7.1491691640       -7.4967233662
 C        -5.2225321528       -7.3407763161       -9.8190313337
 C        -6.4388893351       -6.5290639627      -10.1171956550
 O        -6.3324730085       -5.2703548181      -10.1707234901
 C        -7.7818522019       -7.2482940600      -10.1349848314
 C        -8.9967279369       -6.3040012680      -10.5111037044
 C        -9.4513562819       -5.1939876641       -9.5794803175
 O        -8.8859946312       -4.1056006684       -9.5590478054
 C       -10.6665272908       -5.4367253905       -8.6861183612
 C       -10.2325763246       -5.5552870570       -7.2120456658
 O        -9.0453508620       -5.2808164601       -6.9302114159
 C       -11.3126043902       -5.3909606460       -6.0953508959
 C       -10.9429321194       -6.3211312616       -4.8518976953
 C       -10.6352498661       -7.8406476206       -5.4355133092
 O       -10.2879100493       -7.9262351656       -6.5762530728
 C       -10.8200255374       -9.1523750363       -4.4638431012
 C       -12.3914881999       -9.0361264665       -3.8760848583
 O       -12.6338041419       -8.0172082293       -3.3037415411
 C       -13.4242569012      -10.2116189036       -4.0510081342
 C       -14.1662380029      -10.5186886533       -2.6628995149
 C       -13.1339984649      -11.2342536760       -1.7680282799
 O       -12.0413106931      -11.4573421104       -2.2706589925
 C       -13.2533930124      -11.6380936253       -0.2661801179
 C       -12.0191673392      -10.9349029562        0.4146762766
 O       -11.1817472631      -11.5870597007        0.8879238812
 C       -11.9747346423       -9.4087694214        0.2752646149
 C       -14.4831721144      -10.9507787280        0.5091191117
 C       -13.1118804055      -13.1530392154       -0.0093782867
 C       -10.5266861534      -10.5372171540       -5.2389690747
 C        -9.9336182073       -9.1159289539       -3.2210910272
 C       -11.5213980036       -4.0566185724       -8.8506748593
 C       -11.6287538995       -6.6266815470       -9.0401048987
 C        -3.9323505530       -6.5435687164      -10.0886646738
 C        -5.2033395719       -8.5438713196      -10.7978239652
 C        -0.0721845424       -7.2571551421       -5.4351501852
 C        -1.7687742542       -8.5266924471       -4.0737617829
 C        -4.3264124979       -1.2426541690       -5.2356040213
 C        -6.5200034609       -2.5374541772       -5.0722856733
 C        -4.0443598790       -1.1441001043      -12.7773784085
 C        -1.5075686372       -1.0696759568      -12.0834600359
 C         0.9660224581        3.0220180403       -9.8130037690
 C         0.5961880603        5.4360249776      -10.4884423478
 C         7.4536754561        0.7431762969      -12.4546372393
 C         7.4057149844        3.1255539104      -11.3180045615
 C         8.1658678154        5.8773149005      -18.2001109869
 C         7.1690821700        6.6836032381      -16.0589529887
 C         1.4401620631        3.0161541910      -17.7633238361
 C         0.5585023040        4.8694303185      -19.4931741545
 C        -3.3924574919        8.7407099579      -15.1452927833
 C        -1.3876079279       10.1688876587      -15.9129990145
 H        -1.0719911585        8.8322330908      -12.1922139982
 H        -2.2578767661        9.7888490893      -13.0271412843
 H        -0.5447335867       10.0734537834      -12.9645102093
 H        -3.3329827244        6.3203023608      -16.3115336413
 H        -1.8659097069        5.7830857999      -15.5408236892
 H        -1.5656075119        5.9933097814      -18.5581818628
 H        -2.4215201447        4.5849390685      -17.9836125995
 H         2.9581139881        6.8042784125      -18.5869969692
 H         3.3056190447        5.0939481760      -18.7787009183
 H         4.2415423534        5.8127031953      -16.1659532292
 H         4.4070394993        7.2989019632      -16.9401755982
 H         9.0323006174        4.4659355769      -15.5943085262
 H         9.0213156207        3.1000262874      -16.7992120277
 H         9.1131426575        2.3142061779      -14.3555134742
 H         7.8534600302        1.5814277481      -15.1594811326
 H         4.1217547962        3.9166793334      -13.3625800329
 H         5.1159404858        4.3698608250      -12.1268052305
 H         3.5076075746        4.0068174930      -10.5353627249
 H         3.2552312554        2.3573377814      -11.0767789598
 H        -1.2851097576        2.0023174047      -10.6833649309
 H         0.0110196167        1.5303260425      -11.7019987362
 H        -1.5393145173        1.0427017257      -13.4767359618
 H        -2.2189435739        2.7793647696      -13.1349426618
 H        -4.6873267517       -2.3410140748       -9.8163962648
 H        -5.5119339980       -0.8620801682      -10.2481059166
 H        -5.2976444504       -0.0830017526       -8.0808607446
 H        -3.6883294570       -0.7777083271       -7.9653916388
 H        -3.0354571931       -3.7763227394       -4.1319443690
 H        -2.3985111277       -2.7628198167       -5.3748351775
 H        -0.9682939943       -4.5087844924       -5.3054701810
 H        -2.1137978743       -5.1597820640       -6.6068051336
 H        -4.3920884958       -8.1461883062       -5.8194371217
 H        -3.4894024029       -9.7867592506       -6.1584518587
 H        -4.7937265724       -9.7557073900       -8.1723190780
 H        -3.5184217646       -8.7638705670       -8.7354719727
 H        -7.9903901374       -7.8127058823       -9.2500644490
 H        -7.7888354460       -8.1153511672      -10.9251576762
 H        -9.7974607632       -6.9924517868      -10.8722065725
 H        -8.5720718206       -5.7926648333      -11.4379322670
 H       -12.2836210268       -5.6778585595       -6.5405353807
 H       -11.3129744225       -4.3311462331       -5.7782494999
 H       -11.7092033957       -6.1910736010       -4.1114772578
 H       -10.0546511112       -5.9278687601       -4.4297216060
 H       -13.0376925170      -11.1726011087       -4.4049685199
 H       -14.0329378416       -9.8380670147       -4.7905428883
 H       -14.9342632567      -11.2514981335       -2.8836384165
 H       -14.4643127395       -9.7074042037       -2.0018949782
 H       -12.9482657190       -8.9258445678        0.0795580079
 H       -11.4636466686       -9.1740485450       -0.6388070999
 H       -11.5612799391       -8.7862780696        1.0372664216
 H       -14.6708797919       -9.8697766217        0.1990253154
 H       -14.2879934870      -10.9321010143        1.5772891876
 H       -15.4391806623      -11.4486166757        0.4465842190
 H       -13.2917628424      -13.3590179392        1.0342165247
 H       -12.1274976581      -13.5131528209       -0.1536462971
 H       -13.8990744851      -13.7292977891       -0.5531309919
 H       -10.7208862977      -11.4707002460       -4.6540263783
 H        -9.4161441384      -10.5460927988       -5.4553372270
 H       -11.0916604182      -10.4854442054       -6.1583842557
 H       -10.2295086168       -8.2732087967       -2.6675111766
 H        -8.9054645684       -9.0268969309       -3.4806410697
 H       -10.2184772024       -9.9081151759       -2.4697981751
 H       -10.7671797491       -3.2888342595       -8.9216173964
 H       -12.0347468796       -3.8435841331       -7.9042078770
 H       -12.0900767077       -4.2374896031       -9.7003640449
 H       -11.9478794225       -6.4187778491      -10.1018605166
 H       -12.5502124711       -6.6783151701       -8.4537169156
 H       -11.2123460587       -7.6291238523       -8.6682440400
 H        -3.0411771042       -7.0826511500       -9.9228902249
 H        -3.7869589730       -5.5697390489       -9.6304906254
 H        -3.9081367715       -6.4055006747      -11.1771320454
 H        -4.5650138044       -9.3316306755      -10.5954853415
 H        -5.0729842071       -8.1477765044      -11.8686565236
 H        -6.1870779785       -8.9962455044      -10.8148702926
 H         0.4509624369       -6.6466822811       -4.6764253898
 H         0.3332796851       -6.9648760163       -6.3900936573
 H         0.3244525526       -8.2394764340       -5.1921127019
 H        -1.1735436015       -8.2758132207       -3.1898312342
 H        -1.4325170581       -9.5264572020       -4.3705873453
 H        -2.7925598804       -8.6558027577       -3.7910316354
 H        -4.2251864023       -1.4200749845       -4.1235213334
 H        -4.8573754402       -0.2737876635       -5.1884800450
 H        -3.3012648893       -1.1665427725       -5.6040518879
 H        -7.2161201774       -3.3073525043       -5.5554291064
 H        -6.9501185190       -1.5599554373       -5.1129832722
 H        -6.3357938455       -2.8260184096       -4.0127338193
 H        -3.5726367964       -1.6439498678      -13.6179512577
 H        -4.8281274910       -0.4237474721      -13.1313483508
 H        -4.5891801647       -1.9295589280      -12.2412438511
 H        -1.6439631999       -2.1283538948      -12.2760844434
 H        -0.7388705006       -0.8021866060      -11.3631202630
 H        -1.1975447443       -0.6828424557      -13.0319588873
 H         1.1784369115        1.9619193348      -10.1638293496
 H         0.1633679250        2.9702885183       -9.2105775094
 H         1.8318770849        3.2652316791       -9.2170605335
 H        -0.4392285434        5.5056544898      -10.1121116905
 H         0.8099444653        6.2109000446      -11.2252346266
 H         1.3591120282        5.5709104482       -9.6788119279
 H         7.3509240886        0.2317856284      -13.4356577393
 H         6.8277324897        0.2351459933      -11.7132090593
 H         8.4856723745        0.7341416440      -12.2532554834
 H         8.5203986716        3.1159564636      -11.2797362145
 H         6.9179166843        2.8211966802      -10.4134703672
 H         7.1853867712        4.1520493334      -11.5585011894
 H         9.0852893637        5.5507919382      -17.6091267941
 H         8.2714981745        6.9273980474      -18.4085025710
 H         8.1010042353        5.2625239636      -19.1169751696
 H         6.2442617813        6.5648748911      -15.4593870301
 H         7.1979448781        7.6905781021      -16.4684195933
 H         8.0459085481        6.5374934178      -15.4928323139
 H         0.6445009689        2.2546121423      -17.9872403910
 H         1.7960510177        2.8487252528      -16.7061924155
 H         2.1719832551        2.8938535822      -18.5120397034
 H         1.5011197323        4.8428870604      -19.9816947970
 H         0.2819250697        5.9368172483      -19.5530097399
 H        -0.1619792789        4.2551377053      -19.9671668016
 H        -3.7536679597        7.8819670152      -14.5573373456
 H        -4.0053556329        8.5999687442      -16.0141865963
 H        -3.9137388863        9.5556607530      -14.6563527496
 H        -0.3011181530       10.0356678436      -15.8038329245
 H        -1.7696130130       10.8254773141      -15.1497184509
 H        -1.7214272207       10.4941210809      -16.8893744807
 Na        0.3868926313        5.1881123803      -14.2802297647
 Na       -6.8304932617       -4.8426953948       -7.6601680303
