232

 C        -1.0444523613        9.5098025803      -13.0170586012
 C        -1.1921387328        8.5416649699      -14.1605754136
 O        -0.4240510707        7.5636223582      -14.0411638520
 C        -2.1079028761        8.6729978807      -15.3920847738
 C        -1.6774327827        7.6621402506      -16.5434073197
 O        -0.9249959877        8.0190707179      -17.4553068329
 C        -2.3283475976        6.2065486464      -16.5974741912
 C        -1.7350028856        5.2908750584      -17.6576370864
 C        -0.4379871747        4.5494690040      -17.2178627726
 O        -0.4654917742        3.8794331198      -16.1740152909
 C         0.8712987018        4.6234575498      -18.0981930345
 C         1.8024295643        5.7449767004      -17.3423997091
 O         1.6884666469        5.9935000341      -16.1313783561
 C         3.0509515669        6.1455629556      -18.0833425053
 C         4.3370828888        6.0696734521      -17.1442247089
 C         5.6593015501        5.7428094562      -17.9104513621
 O         5.6733193062        5.5927685234      -19.1187777071
 C         6.9798033484        5.6221918511      -17.0255248511
 C         7.0960406015        4.1089498520      -16.4464381708
 O         6.0978056571        3.4574264756      -16.2971979245
 C         8.4511766756        3.5228886232      -15.9228521812
 C         8.1718896127        2.4073773835      -14.9736793802
 C         7.3761663410        2.9579252042      -13.8160174076
 O         7.0698515304        4.1449560581      -13.8794967854
 C         6.9740641678        2.1219179600      -12.6292684742
 C         5.3495482526        2.1209837442      -12.8535212356
 O         4.7952028593        1.1192049405      -13.2886734928
 C         4.5274755787        3.3692477752      -12.5913038594
 C         3.4247294409        3.2691278458      -11.4868467575
 C         2.1715630904        3.8238761487      -12.0924508994
 O         2.1098837332        4.2434853521      -13.2288486442
 C         0.8298727352        3.9178363459      -11.0551431412
 C        -0.4194066351        3.6530838645      -11.7973689468
 O        -0.9673714529        4.4889010100      -12.5079908921
 C        -1.0068578124        2.1383726122      -11.7196025499
 C        -1.7942333296        1.6532612789      -13.0159993589
 C        -3.0753521572        0.9881901567      -12.3265276682
 O        -4.0128071335        1.7201960930      -12.1003502668
 C        -3.1223370805       -0.5490904783      -11.9800221226
 C        -3.5938592416       -0.6249458296      -10.3752415877
 O        -2.6531968100       -0.3484302800       -9.6289887590
 C        -4.8332296995       -1.2074869041       -9.7946518387
 C        -5.0448757431       -0.7550244081       -8.2913077739
 C        -5.6015072818       -1.8849257355       -7.5302600841
 O        -6.3614458001       -2.6567100439       -8.0653004145
 C        -5.1671757520       -2.2792757282       -6.0720500364
 C        -4.3027259696       -3.6076358124       -6.1488940946
 O        -4.6520833835       -4.6042291147       -6.7096739032
 C        -3.0396162739       -3.6172445498       -5.2038017927
 C        -2.0346440055       -4.8573719386       -5.5121012570
 C        -2.4770859168       -6.1266877103       -4.7564026767
 O        -3.4492364830       -6.2911251684       -4.0600896572
 C        -1.5961671030       -7.5125861715       -5.0815572864
 C        -2.2083973400       -8.0240949410       -6.4798121482
 O        -1.6212763121       -7.8369884981       -7.5258672578
 C        -3.6009766059       -8.6334238218       -6.3467379975
 C        -4.2280712545       -9.0458368539       -7.6745275482
 C        -5.2271681918       -7.9002072362       -8.2899453403
 O        -5.9748777829       -7.3543078413       -7.5137689518
 C        -5.0859965826       -7.4185342495       -9.7468799608
 C        -6.4178951477       -6.4329999675      -10.2241514808
 O        -6.2562200253       -5.2798826267      -10.3713082507
 C        -7.8616200069       -7.0832473645      -10.3556614513
 C        -8.9478008172       -6.0481770437      -10.8178401883
 C        -9.3364125952       -5.1506857312       -9.6470041252
 O        -8.5120017118       -4.3187828086       -9.4252576013
 C       -10.5831371663       -5.2672998111       -8.6456462327
 C       -10.0865762602       -5.3671491450       -7.0011736639
 O        -9.0580372704       -4.9450532582       -6.6152761835
 C       -11.2964424252       -5.5301729932       -6.0158497658
 C       -10.9167000574       -6.4238412084       -4.8276728594
 C       -10.8645230120       -7.8885946857       -5.2032921477
 O       -10.7071616301       -8.2430954992       -6.3884051414
 C       -11.0791136019       -9.0934406153       -4.2505588897
 C       -12.5771797154       -8.9405672079       -3.6814973379
 O       -12.9123204379       -8.0167485810       -2.9424337136
 C       -13.6092871622      -10.0432360026       -3.9345352993
 C       -14.1242751299      -10.4187086004       -2.6084948025
 C       -13.0821138031      -11.2694972432       -1.7237168177
 O       -12.2077494409      -11.8104532869       -2.3527840084
 C       -13.2696671043      -11.5272746877       -0.2220461403
 C       -11.8384484122      -10.8121113717        0.5183695668
 O       -11.0636514215      -11.6666139324        0.9029923370
 C       -11.4652198297       -9.3378490673        0.3839898534
 C       -14.5360594705      -10.9798299848        0.3277493368
 C       -13.2458767181      -13.0385207557       -0.0293839056
 C       -10.7174100976      -10.4147961413       -5.0768502391
 C       -10.1026581174       -8.9467389673       -3.0415655146
 C       -11.4648585946       -4.0371564097       -8.8884749611
 C       -11.3064355815       -6.5494146083       -9.0401444018
 C        -3.8870384379       -6.4537641771       -9.6867477194
 C        -4.9391474948       -8.5627491168      -10.7375516252
 C        -0.1614087190       -7.0604301030       -5.3239478428
 C        -1.6875064746       -8.5558021528       -4.0023416172
 C        -4.5129941183       -1.0379598628       -5.3759121048
 C        -6.3808451170       -2.6947509934       -5.2087084366
 C        -4.1355450808       -1.3420557665      -12.8734028367
 C        -1.7280159414       -1.2515709246      -11.9587569920
 C         1.0469292988        2.9424510766       -9.9002529805
 C         0.8861158457        5.3782337968      -10.4257432660
 C         7.4832853217        0.5608140740      -12.5431417643
 C         7.4252327849        2.7818673060      -11.2138850668
 C         8.1718261070        5.9018584460      -17.9301388444
 C         6.9305438198        6.5957325023      -15.7834176252
 C         1.6283119966        3.3769386313      -17.6991014648
 C         0.7139804887        4.7037755067      -19.5595592468
 C        -3.5503661719        8.6485756078      -15.0457553484
 C        -1.9014411479       10.0823569742      -16.1180024301
 H        -0.6629063556        9.0682009606      -12.0889696930
 H        -2.0015552853       10.0113997343      -12.7426184617
 H        -0.2064744734       10.2719840358      -13.1267012371
 H        -3.4213318592        6.2662889230      -16.9491148497
 H        -2.2177933142        5.7305044646      -15.5945144750
 H        -1.7588463759        5.7784761637      -18.6110285386
 H        -2.4973013658        4.5449678390      -17.7276174291
 H         3.0089491345        7.0791624081      -18.6385003961
 H         3.1643145402        5.4145163238      -18.8788913487
 H         4.0310527802        5.3959042155      -16.3209967284
 H         4.5307387069        7.0385621229      -16.7265892814
 H         9.1052053451        4.3266224559      -15.4645013782
 H         8.8839576356        3.0523847037      -16.8003087488
 H         9.0610648439        1.8455868667      -14.6793740863
 H         7.5788928359        1.6679776600      -15.5102385201
 H         4.1293076034        3.6186327333      -13.6020845529
 H         5.1860395512        4.2229776430      -12.2942363805
 H         3.5177529331        3.7415938859      -10.4722505934
 H         3.1650443238        2.1916425713      -11.3615642096
 H        -1.4729023094        2.0210669994      -10.7253611588
 H        -0.0605641598        1.4999473530      -11.6518536065
 H        -1.0537191660        0.9292658245      -13.4423940212
 H        -2.0330885425        2.5240745193      -13.6429232314
 H        -4.7994093878       -2.3187075669       -9.7709908048
 H        -5.6556545129       -0.9823039190      -10.4612804469
 H        -5.7663046964        0.1937538065       -8.2066556835
 H        -4.0319396193       -0.5142152364       -7.9528628496
 H        -3.5281566566       -3.8310847728       -4.2524218910
 H        -2.3564387397       -2.7792819107       -5.0249156111
 H        -1.0976694307       -4.5328506720       -5.1324542519
 H        -2.0920797357       -4.8697283781       -6.5845859333
 H        -4.2741339758       -8.0565307683       -5.8297060573
 H        -3.5035534386       -9.5363840464       -5.9223796107
 H        -4.9393112445       -9.8544167575       -7.4824842272
 H        -3.5490523729       -9.4899546997       -8.3304037320
 H        -8.2094954244       -7.6053000228       -9.4210311384
 H        -7.8431098547       -7.8505626623      -11.0235311190
 H        -9.7885234571       -6.6105248020      -11.2704890474
 H        -8.4796302544       -5.4017444193      -11.5642028001
 H       -12.1218911292       -6.0260224577       -6.5342987702
 H       -11.6308696626       -4.5499794922       -5.6681482111
 H       -11.7230167008       -6.3012152688       -4.0494905531
 H        -9.9592509394       -6.0297918176       -4.3311574258
 H       -13.0721788991      -10.7861944270       -4.5548961228
 H       -14.4873500051       -9.6226288302       -4.5985472800
 H       -14.9961632011      -11.0753896977       -2.6845491839
 H       -14.2884988537       -9.4962037612       -2.0099279093
 H       -12.1758102368       -8.6066705819        0.0528715838
 H       -10.6069748684       -9.2150741224       -0.2725196700
 H       -11.0898445755       -9.0010805437        1.3618559254
 H       -14.6612382425       -9.9131404777        0.5085820197
 H       -14.7863170699      -11.5265372519        1.2521270503
 H       -15.3924888242      -11.3070456110       -0.3355485384
 H       -12.9562413458      -13.3953510420        1.0029717707
 H       -12.4826853031      -13.4395985304       -0.7772155210
 H       -14.2032034459      -13.4896757088       -0.1728304707
 H       -10.9465602835      -11.2232593174       -4.4401911710
 H        -9.6510916481      -10.4893833364       -5.1936563193
 H       -11.3423825129      -10.4878656843       -5.9534459666
 H       -10.4294240741       -8.0876852367       -2.3693684229
 H        -9.0610204616       -8.7129208588       -3.3967805476
 H       -10.2589751828       -9.7401892875       -2.3804092897
 H       -11.0634966696       -3.2394791061       -8.2849086189
 H       -12.3997835138       -4.2149139108       -8.4326587694
 H       -11.3045859540       -3.9385824937       -9.9840174095
 H       -11.6735336568       -6.4629348060      -10.0060585334
 H       -12.1679756430       -6.7904203859       -8.4300522179
 H       -10.6504910663       -7.3492606659       -8.8369814663
 H        -2.9794363169       -6.8750701280       -9.2081822107
 H        -4.1854986297       -5.6075199380       -9.0623625124
 H        -3.5920495015       -5.9913463637      -10.6247261191
 H        -3.8950566705       -9.0496895470      -10.6317433929
 H        -4.9483408236       -8.1236753432      -11.6805209904
 H        -5.6335533050       -9.3769028750      -10.7219899453
 H         0.2668234355       -6.3621587922       -4.5659825456
 H        -0.1837126046       -6.5144884083       -6.3191614840
 H         0.6410357542       -7.8344920621       -5.3614486872
 H        -1.0594833701       -8.2684386977       -3.1514957712
 H        -1.1959499154       -9.4899974472       -4.3179171336
 H        -2.6931552379       -8.7826451054       -3.6003700232
 H        -4.1541960115       -1.1961204253       -4.4110019657
 H        -5.2030552770       -0.2384478059       -5.2697611303
 H        -3.6288990311       -0.7390059582       -5.9242442440
 H        -7.2163673437       -2.8887648327       -5.8366182833
 H        -6.6194925065       -2.0212664552       -4.3530118256
 H        -6.0579282964       -3.6057326136       -4.7365906108
 H        -3.7185010932       -2.2541439391      -13.2967089746
 H        -4.4073424946       -0.7214317830      -13.7182033721
 H        -5.0917870229       -1.5920455918      -12.3939271288
 H        -1.8100478808       -2.2058611983      -11.4325573200
 H        -1.1061161399       -0.5675336475      -11.3751420373
 H        -1.2393414280       -1.3251850632      -12.9309855126
 H         1.3420013876        1.9385082170      -10.0499596835
 H         0.0290826712        2.8478020624       -9.3306887598
 H         1.8580123097        3.3215707322       -9.2390287473
 H         0.0804802697        5.5092944371       -9.6871348723
 H         0.8765262076        6.0942268358      -11.2464725424
 H         1.8119799735        5.5273087310       -9.9418110320
 H         7.1127918566       -0.0803778733      -13.3377063730
 H         7.3111643605        0.1766020621      -11.5429224842
 H         8.5566701117        0.5773933810      -12.8532793936
 H         8.4317775249        3.0768702537      -11.3319153146
 H         7.1830370424        2.0311386779      -10.4287148615
 H         6.9568090998        3.7148026209      -11.0091515810
 H         9.1114507829        5.6490643652      -17.5274841648
 H         8.1298569099        6.9563619986      -18.2054264873
 H         7.9279908094        5.3611197101      -18.8359640753
 H         6.3338655096        6.3126173828      -14.9196559745
 H         6.6199504290        7.5743421741      -16.1540091628
 H         8.0550751779        6.5990430664      -15.4411260961
 H         1.0466035682        2.5245974937      -17.9098195416
 H         1.9025699628        3.3432658447      -16.6745444230
 H         2.5899303532        3.4246343362      -18.3483766150
 H         1.6974738169        4.5827586815      -20.0532652282
 H         0.3303803718        5.6543401688      -19.8800491882
 H        -0.0511102357        3.9580548828      -19.8230428501
 H        -3.9059907506        7.6949034659      -14.6868462104
 H        -4.3655285397        8.8836832703      -15.7254906396
 H        -3.7446545218        9.2707387453      -14.1752677594
 H        -0.9390091582       10.0012556597      -16.6377006582
 H        -1.9167779999       10.9727445001      -15.4438187055
 H        -2.7592377962       10.0610754593      -16.7947750206
 Na        0.0999515255        5.3713148740      -14.2875914598
 Na       -6.9757830365       -4.9511321625       -7.8972680923
