232

 C        -1.0821177092        9.7036196758      -13.1428798998
 C        -1.1171172998        8.5582031603      -14.2632989361
 O        -0.5111277683        7.5521169845      -14.0374420848
 C        -2.2237363740        8.6878525713      -15.4449345249
 C        -1.7219115290        7.6972719906      -16.5513305599
 O        -0.8165784519        7.9871979880      -17.3089643211
 C        -2.4165536172        6.2520779175      -16.6898491978
 C        -1.7292210871        5.2038590356      -17.6384233707
 C        -0.4148955117        4.5327201152      -17.1094986711
 O        -0.4668719950        3.8130866407      -16.1660363837
 C         0.9857321490        4.6110648594      -17.9771254083
 C         1.8841198081        5.7248938842      -17.3475113132
 O         1.6724576814        6.1348871030      -16.1803612687
 C         3.1234869481        6.2592127854      -18.1125026624
 C         4.3429819482        6.0052089650      -17.1600658718
 C         5.6756859916        5.8043035416      -17.8925714309
 O         5.8543717804        5.9115807239      -19.0511690269
 C         6.9101263583        5.5863805543      -16.9651369559
 C         6.9724490665        4.1390888506      -16.4227846897
 O         6.0036096050        3.4414979217      -16.3206128072
 C         8.3820878993        3.5014774926      -16.1314463596
 C         8.1930287060        2.3964313912      -15.1241505103
 C         7.5069400898        2.9741718027      -13.7960684018
 O         7.1752818268        4.1193541452      -13.6967581185
 C         6.9541961570        2.0035257840      -12.6585758157
 C         5.4349942157        2.0561687609      -12.8374462475
 O         4.8229479942        1.0933589938      -13.2307104143
 C         4.6979477645        3.3914002617      -12.6592797076
 C         3.5464494406        3.1179479839      -11.7047212756
 C         2.1612509018        3.7617015217      -12.0703160313
 O         1.9835539049        4.2877147038      -13.1517629691
 C         1.0028308008        3.8516944009      -11.0664140668
 C        -0.3292837024        3.5759195601      -11.9067845634
 O        -0.8107157293        4.4816256665      -12.5129851225
 C        -0.9181025453        2.1855747520      -11.8117064861
 C        -1.7992116238        1.5729202607      -12.9149672807
 C        -3.0958986800        0.9262328950      -12.3691376848
 O        -3.9404327726        1.6648127178      -11.9516619762
 C        -3.1398823761       -0.6249167744      -11.9705003673
 C        -3.5977391510       -0.6053829937      -10.4150546023
 O        -2.7843380506       -0.1258628544       -9.6733330953
 C        -5.0004101467       -0.9964012568       -9.9755689508
 C        -5.1357963982       -0.7451864105       -8.4212731156
 C        -5.6298603837       -2.0061813048       -7.5834921146
 O        -6.4426033791       -2.7347239817       -8.0947434619
 C        -5.1584465303       -2.3065017024       -6.1363678667
 C        -4.2648140493       -3.5606293139       -6.1377528096
 O        -4.6996393253       -4.5221279186       -6.7846078401
 C        -3.0832358238       -3.6839934646       -5.1935489387
 C        -2.0644147549       -4.9261120295       -5.5032524045
 C        -2.5159657337       -6.1790332740       -4.8242272250
 O        -3.4906361742       -6.2696654371       -4.1045262984
 C        -1.6262284717       -7.3804142654       -5.1438670007
 C        -2.2719366911       -8.0030007679       -6.4518758123
 O        -1.6150955019       -8.0076512632       -7.4602845161
 C        -3.6915043566       -8.6553486497       -6.3527327823
 C        -4.3871579741       -9.0537005690       -7.7604125512
 C        -5.2837219249       -7.9016581636       -8.2410515006
 O        -6.0326214440       -7.3238485709       -7.4447977424
 C        -5.0883550730       -7.3450775028       -9.6704576755
 C        -6.3514712599       -6.5684489038      -10.1606861843
 O        -6.1043929336       -5.3781616495      -10.4597021046
 C        -7.7322453992       -7.1609411427      -10.4445156271
 C        -8.8955546417       -6.0426335518      -10.7094932881
 C        -9.0859716031       -5.1504216716       -9.4842164278
 O        -8.4172155976       -4.1763441899       -9.2137691891
 C       -10.4306947033       -5.2883167677       -8.5963773392
 C       -10.1342213993       -5.1857483672       -7.0855054336
 O        -9.0169594892       -4.9518897341       -6.6035201070
 C       -11.2898936657       -5.4768787520       -6.0888548164
 C       -10.8715449800       -6.5356420011       -4.8995282651
 C       -11.0262622385       -7.9880590818       -5.2925778294
 O       -10.8327169406       -8.2915084158       -6.4311175419
 C       -11.2076963893       -9.0920238458       -4.1349446728
 C       -12.6294738025       -8.8410437745       -3.5434018409
 O       -12.8930631907       -7.9097019899       -2.8472527783
 C       -13.7080270214       -9.9821138093       -3.7981531889
 C       -14.1851130852      -10.4653608686       -2.4693638797
 C       -13.0639688856      -11.3370312911       -1.7899909486
 O       -12.1926223645      -11.9394469430       -2.4339910911
 C       -13.1662516209      -11.4705851667       -0.2666512217
 C       -11.8183054947      -10.9306720334        0.4445452659
 O       -11.0691377375      -11.6451624515        0.9645787196
 C       -11.4692025577       -9.4700259467        0.4370701371
 C       -14.4981088514      -10.7713865483        0.2752590733
 C       -13.1707954200      -13.0414969793       -0.0286658085
 C       -10.8965240600      -10.3522823415       -4.8050807601
 C       -10.1923076798       -8.8152499161       -2.9982928150
 C       -11.4324872016       -4.0162964171       -8.8636727951
 C       -11.1976354903       -6.6151993362       -8.9986585750
 C        -3.9100871236       -6.3915951866       -9.5859755721
 C        -4.8269340784       -8.5288912759      -10.6754794992
 C        -0.1502010299       -6.9397234704       -5.3036559189
 C        -1.6950340005       -8.4046918302       -3.9699990908
 C        -4.5628105773       -0.9530276802       -5.4511431138
 C        -6.4261724809       -2.7902224406       -5.2864171692
 C        -4.2563357880       -1.4251348713      -12.8301050796
 C        -1.7738822945       -1.2842829059      -12.1126836903
 C         1.1485355001        2.9361282935       -9.8059591051
 C         0.9700221623        5.3639060746      -10.6052148878
 C         7.5253302003        0.5774066168      -12.7386762061
 C         7.2179670699        2.5856544706      -11.2499691325
 C         8.1243048979        5.8642550500      -17.8315624290
 C         6.8577411274        6.4983437424      -15.7001692738
 C         1.8166017865        3.2680761346      -17.7025689311
 C         0.7443165463        4.7945176918      -19.5301960669
 C        -3.5944374588        8.4227150381      -14.8722164913
 C        -2.0161696729       10.1696081815      -16.0827502665
 H        -0.6603438872        9.4047052742      -12.1602196185
 H        -2.1037209892       10.0745268591      -12.9617586990
 H        -0.4063837233       10.5399004800      -13.3179855055
 H        -3.4580309530        6.3070650288      -17.1442246594
 H        -2.4022805527        5.9016689525      -15.6511779466
 H        -1.6561525558        5.6882431975      -18.5907857136
 H        -2.4741449655        4.4272501846      -17.7692696033
 H         2.9842295423        7.3075828173      -18.2496493384
 H         3.3414202802        5.9263639020      -19.1153264627
 H         4.0296773064        5.0736151910      -16.6041583034
 H         4.4784097419        6.8474600658      -16.4312733973
 H         8.9454401141        4.2318647566      -15.6132880417
 H         8.7923355478        3.1989582477      -17.0471078661
 H         9.1211620510        1.8306125540      -14.9097909680
 H         7.4559277037        1.6033265058      -15.4842622629
 H         4.4656382646        3.6114446105      -13.7071228321
 H         5.2803238107        4.2805130191      -12.1748367672
 H         3.7317578090        3.4670954733      -10.7374922476
 H         3.3409643116        1.9840301034      -11.6521373818
 H        -1.5534953498        2.4521102719      -11.0373614003
 H        -0.2000846545        1.5169424073      -11.3747033127
 H        -1.0836993750        0.8964122571      -13.5373911626
 H        -2.1342812884        2.4247987554      -13.4842353235
 H        -5.2841915697       -2.0277606495      -10.1580554346
 H        -5.7696681258       -0.4121698062      -10.6209839529
 H        -5.8538135090        0.0603340443       -8.2933660425
 H        -4.1895662699       -0.4554727983       -8.1254149276
 H        -3.6200751458       -3.7499912189       -4.1720983944
 H        -2.4214879523       -2.8718344069       -5.1532072269
 H        -1.1257615585       -4.5614565102       -5.0315506668
 H        -2.0755361453       -4.8304800706       -6.5409017167
 H        -4.4207577323       -7.9019723488       -5.9698199686
 H        -3.7269187281       -9.6271106380       -5.7464085295
 H        -5.0251969094       -9.9719014234       -7.7786810684
 H        -3.6945091718       -9.2515380288       -8.5128034688
 H        -7.9521362080       -7.8749866233       -9.6349283888
 H        -7.6293621705       -7.8230243784      -11.3630877028
 H        -9.8302834122       -6.4562918040      -10.9371584310
 H        -8.5049163731       -5.4387117633      -11.4735284144
 H       -12.1800026529       -5.8868041198       -6.5847200451
 H       -11.5836874053       -4.5395728323       -5.6330741498
 H       -11.5385446386       -6.3433725192       -4.0314244924
 H        -9.8439890275       -6.3490488864       -4.5090683700
 H       -13.1079086025      -10.6386597345       -4.4553534989
 H       -14.5690673737       -9.6843484443       -4.4043520019
 H       -14.9800125685      -11.2146164453       -2.5269447660
 H       -14.4182785166       -9.5999744135       -1.7969769586
 H       -12.1472005977       -8.6788607104        0.0030210526
 H       -10.5243306816       -9.2871684800       -0.0311900752
 H       -11.2681130406       -9.2030925048        1.4931791006
 H       -14.4559701548       -9.6405587525        0.3832807789
 H       -14.7736024031      -11.1639567528        1.1831281186
 H       -15.3263034722      -10.9669071327       -0.3203059488
 H       -12.9288906641      -13.3516332525        1.0166036537
 H       -12.5569822299      -13.5856243108       -0.7516434057
 H       -14.1841831469      -13.3855752388       -0.0957738754
 H       -10.8724387880      -11.1251008530       -4.0795310410
 H        -9.8402652620      -10.3153993943       -5.2154183817
 H       -11.6630639137      -10.5986604037       -5.4789960636
 H       -10.4668817499       -7.9751378897       -2.3544453056
 H        -9.1985086366       -8.6176664192       -3.3880197510
 H       -10.3510137389       -9.6640214116       -2.2976994025
 H       -11.2610546308       -3.2164651755       -8.1446982251
 H       -12.3759426681       -4.4102085799       -8.4988495638
 H       -11.2404710487       -3.8150015260       -9.8833455297
 H       -11.5840736513       -6.5381967819       -9.9809174623
 H       -12.0385259374       -6.8148540414       -8.3924658550
 H       -10.5146748328       -7.5082736360       -8.8808527542
 H        -3.0460938455       -6.9221105517       -9.2701868700
 H        -4.0240335821       -5.5339722367       -8.8802740318
 H        -3.6912522214       -5.8793823649      -10.5631679134
 H        -3.7830142462       -8.8304352913      -10.5169725071
 H        -4.9145814573       -8.3365051689      -11.8017060857
 H        -5.3728495844       -9.3885116242      -10.4426760738
 H         0.1380745395       -6.6017962881       -4.2931373264
 H         0.1163165124       -6.1368227546       -6.0094926149
 H         0.5450408697       -7.7038874525       -5.4609852720
 H        -1.1692137220       -8.1411223159       -3.0263793870
 H        -1.2786524577       -9.4033926060       -4.2102204892
 H        -2.7247835410       -8.4819203188       -3.7070166649
 H        -4.2368379416       -1.1322959370       -4.4467081103
 H        -5.2525664945       -0.1404968837       -5.4096669375
 H        -3.6603608061       -0.5900433947       -5.9188919229
 H        -7.3105641494       -2.9148078382       -5.9490788349
 H        -6.6394029847       -2.0951826075       -4.4897112249
 H        -6.1324260976       -3.6631335097       -4.7224751415
 H        -4.0581524685       -2.4310894485      -12.9649772278
 H        -4.2369425577       -0.9879291561      -13.8574629878
 H        -5.2738524534       -1.3047577559      -12.4945943623
 H        -1.7731472015       -2.1354263308      -11.3858582688
 H        -0.9557802768       -0.5945625729      -11.8095320861
 H        -1.5680300333       -1.5781309892      -13.1350114547
 H         1.2831719371        1.8212741217       -9.8880226373
 H         0.2556693946        3.0377381474       -9.2817257821
 H         2.0298963448        3.1834546991       -9.1926559132
 H         0.3429390164        5.3508586154       -9.6856944523
 H         0.5481413017        5.9107717062      -11.4219745614
 H         1.9029092296        5.7981559265      -10.3560666176
 H         6.9170246181        0.0595399810      -13.5484379859
 H         7.4866105992        0.0525838254      -11.7705971952
 H         8.4611519020        0.5264727072      -13.2011197893
 H         8.2954976900        2.8585748353      -11.3071763615
 H         6.8957045160        1.8609767888      -10.4630058434
 H         6.7638692968        3.4969762758      -11.1237382358
 H         9.0736418147        5.8526996950      -17.2698232432
 H         7.9047245725        6.8168956108      -18.1589372140
 H         8.0921450627        5.2325668979      -18.7321199844
 H         6.1731123571        6.0841723766      -14.8954619176
 H         6.4873725081        7.4388564795      -15.9835460108
 H         7.8700986244        6.5028462735      -15.2456119174
 H         1.3553318296        2.4826521461      -18.2382323037
 H         1.8919831960        2.9347624161      -16.6305270791
 H         2.8128653759        3.5071538195      -18.0590821724
 H         1.6800131058        4.7782745940      -20.1136602556
 H         0.1938574088        5.7597153471      -19.8120773891
 H         0.0282267930        4.0436460594      -19.7456470945
 H        -3.7547600049        7.4065014339      -14.5219904127
 H        -4.4381434780        8.5147196463      -15.5013359418
 H        -3.8839011342        9.0097776633      -14.0183983191
 H        -0.9658626063       10.1897167162      -16.4985173439
 H        -2.0589998196       10.8970512505      -15.3062365007
 H        -2.8126699078       10.2503424024      -16.8120764289
 Na        0.0619653045        5.4528124045      -14.4753064843
 Na       -6.9046991918       -5.0421597501       -7.8810906921
