232

 C        -1.1629980704        9.8211774677      -13.4068840275
 C        -1.2582588757        8.5820018989      -14.2428300218
 O        -0.5892403785        7.6094600366      -14.0413156630
 C        -2.1871295669        8.6729418104      -15.4379262819
 C        -1.6552780060        7.6063176261      -16.5467393271
 O        -0.7195005514        7.8698637358      -17.2290871099
 C        -2.4128151886        6.2871306212      -16.6808181382
 C        -1.6696957615        5.2840182180      -17.6790050941
 C        -0.3501480756        4.4706506851      -17.1381422183
 O        -0.4235967095        3.8437096253      -16.0850934985
 C         0.9995405671        4.5529863809      -17.8616474322
 C         1.8716378671        5.8142622635      -17.3128860931
 O         1.6030147130        6.2539171519      -16.2351499586
 C         3.1322048133        6.2639821731      -18.0399035189
 C         4.3276854008        5.9074903529      -17.1642205664
 C         5.6947697170        5.9757038366      -17.8194517851
 O         5.8433705725        6.1913402704      -19.0360977761
 C         6.9268841413        5.6251463634      -16.9544548401
 C         6.8462357024        4.0552229909      -16.5191805847
 O         5.7956025051        3.4297055070      -16.3493118573
 C         8.2440151334        3.4556741962      -16.2057985624
 C         8.1504048734        2.4473376051      -15.0475837701
 C         7.5448493906        2.9408629253      -13.7684636686
 O         7.4652123033        4.1513959439      -13.5910827154
 C         7.0475826512        1.9166925825      -12.7281609621
 C         5.4429273445        1.9639443751      -13.0040206674
 O         4.8136729494        0.9531085747      -13.1531641102
 C         4.7109846626        3.3604281222      -12.7316844192
 C         3.5297380019        2.9934360700      -11.8549842179
 C         2.1698888538        3.8393093297      -12.1476009395
 O         1.9536423346        4.3567283693      -13.2390058080
 C         1.0471450559        3.8716246781      -11.0573334592
 C        -0.2911684982        3.4580801698      -11.8835308851
 O        -0.6908543842        4.3393771024      -12.6298697959
 C        -0.9647841717        2.1141566868      -11.7165973951
 C        -1.8123075219        1.5807721445      -12.8756052779
 C        -3.0500448596        0.9317895816      -12.2808711683
 O        -4.0145685559        1.5882745568      -11.8814740242
 C        -3.1552102382       -0.6854241901      -11.9254635605
 C        -3.5952585820       -0.4930416055      -10.4719440873
 O        -2.8428051491        0.0336680639       -9.6750754619
 C        -5.0885435559       -0.7712846560      -10.0217924500
 C        -5.1947992877       -0.7899273171       -8.4882888250
 C        -5.7064421580       -2.0329551594       -7.7000694306
 O        -6.4798164868       -2.8134721086       -8.2329615628
 C        -5.2581223057       -2.2820719619       -6.1747395412
 C        -4.3207104388       -3.5498647734       -6.1164035529
 O        -4.6136476621       -4.4935999325       -6.8891639122
 C        -3.1764170041       -3.6020128147       -5.2204451764
 C        -2.1391992717       -4.7995262808       -5.5067032073
 C        -2.6029294906       -6.1253149670       -4.8363001409
 O        -3.6047533782       -6.2095775311       -4.1279952355
 C        -1.7164873108       -7.3745339693       -5.1541858579
 C        -2.2681340075       -8.1147003508       -6.4596895245
 O        -1.6830409799       -8.1757722704       -7.5352436090
 C        -3.6782634134       -8.6189045861       -6.3052950191
 C        -4.4072022473       -8.9030670432       -7.6458951617
 C        -5.3097362145       -7.8402229619       -8.1339559302
 O        -6.1238243234       -7.2755750376       -7.4152029423
 C        -5.0622012976       -7.3741874244       -9.5984075586
 C        -6.2624401623       -6.5658770571      -10.2266925784
 O        -6.0985550157       -5.3764470421      -10.5492191256
 C        -7.5793946695       -7.1642484986      -10.4450314242
 C        -8.6752670545       -6.0849029797      -10.5067229623
 C        -9.0843097265       -5.0672073028       -9.3386266198
 O        -8.3974386249       -4.0672357894       -9.1412465799
 C       -10.4016009296       -5.3452896044       -8.5775716186
 C       -10.1086783546       -5.3101725393       -7.0413436999
 O        -8.9471874293       -4.9935889430       -6.6812531701
 C       -11.2598299012       -5.4797590903       -6.0777767191
 C       -10.9067326242       -6.4362911217       -4.9458005432
 C       -11.0235277803       -7.9514933051       -5.3896963527
 O       -11.0291759351       -8.3742712055       -6.5113096243
 C       -11.2219956156       -8.9903927714       -4.1620006037
 C       -12.6186110606       -8.8049530976       -3.5233888966
 O       -12.8848488839       -7.8373192909       -2.8292062795
 C       -13.7980577993       -9.8627862592       -3.7367098982
 C       -14.2293446215      -10.5363157828       -2.4272465273
 C       -13.1136155931      -11.3896705884       -1.8176269131
 O       -12.2577834069      -11.9459456311       -2.4886430479
 C       -13.1000741107      -11.5092966307       -0.2669363038
 C       -11.7961350808      -11.0152139652        0.4293850540
 O       -11.0826394229      -11.8280618350        1.0324607159
 C       -11.6041518032       -9.4526710638        0.4495622284
 C       -14.2137537086      -10.7178100155        0.3932749700
 C       -13.1885425575      -12.9907025174        0.0909949185
 C       -11.0297190297      -10.4496225811       -4.5833554640
 C       -10.2459451716       -8.5951972741       -2.9638921801
 C       -11.3151436613       -4.1125832957       -8.8989035130
 C       -11.0932169567       -6.6473534515       -8.9071045939
 C        -3.8931139110       -6.4267329401       -9.5300198305
 C        -4.7256733903       -8.5042521007      -10.6507467546
 C        -0.1768413455       -7.0118688670       -5.3828597422
 C        -1.7711202239       -8.3406199354       -3.9009543032
 C        -4.5760637718       -1.0558337678       -5.5326494130
 C        -6.4761309041       -2.7201740219       -5.3467712747
 C        -4.2679660803       -1.3636370223      -12.8320549151
 C        -1.8880606076       -1.3980899890      -12.2472522901
 C         1.2828416193        2.9666729559       -9.7722536159
 C         1.0244098669        5.3106111920      -10.7252486377
 C         7.5570295554        0.5232640659      -12.9811137962
 C         7.2506561263        2.4245115672      -11.2338635992
 C         8.2831702235        5.9332212382      -17.7300511167
 C         6.8538234982        6.4311054900      -15.6061859048
 C         1.8810800142        3.2527973823      -17.7538541407
 C         0.7676762574        4.8859221510      -19.3424976468
 C        -3.4982515310        8.2642118015      -14.7814839722
 C        -2.2208759851       10.1585842486      -15.9705703110
 H        -0.5551181744        9.8266747031      -12.5203802134
 H        -2.0863066141       10.3262123619      -13.2144912023
 H        -0.5561001292       10.4254262397      -14.0317164887
 H        -3.3396464608        6.5016900255      -17.1506989850
 H        -2.5014743865        5.9499665473      -15.6365526805
 H        -1.4007990186        5.9594692412      -18.5286691989
 H        -2.4302118858        4.5797132128      -18.0875939014
 H         3.0806976437        7.3577060705      -18.0623766845
 H         3.3564899942        6.0527252424      -19.0885990983
 H         4.2057558707        4.8317251252      -16.9410051012
 H         4.3375892563        6.5236722491      -16.2060957953
 H         8.8132086720        4.2500584373      -15.8654235917
 H         8.6062164403        3.0112260712      -17.1213945078
 H         9.1606571857        2.0974646141      -14.6975066833
 H         7.6162236018        1.5064062275      -15.3358918395
 H         4.3920786715        3.6683956599      -13.7669925506
 H         5.3057832907        4.1177017915      -12.2350271772
 H         3.7483133061        3.0959558881      -10.8104027082
 H         3.2419800254        1.9466392860      -12.0492939297
 H        -1.6115782134        2.3188462537      -10.8757610451
 H        -0.2196889496        1.4404042988      -11.4601038364
 H        -1.2031543135        0.9005669480      -13.4502476573
 H        -2.1891742097        2.4129687405      -13.5547892698
 H        -5.5059300490       -1.7132310395      -10.4206338249
 H        -5.8608829129       -0.0471928543      -10.3534139918
 H        -5.9438261976       -0.1601892960       -8.3691811707
 H        -4.2562414375       -0.3961949573       -8.1128834682
 H        -3.5322696361       -3.6571567129       -4.1590086441
 H        -2.5522412525       -2.6967038011       -5.2931935653
 H        -1.2064064355       -4.3752642939       -5.1044604393
 H        -2.2069701164       -4.7319210229       -6.6054094481
 H        -4.4159215669       -7.8866107411       -5.7593623016
 H        -3.6858481558       -9.7038159509       -5.8221256112
 H        -4.9495819479       -9.8342100904       -7.7421105493
 H        -3.6298645707       -8.9825794132       -8.5037338128
 H        -7.7016820008       -7.9555527141       -9.7085846796
 H        -7.6044284344       -7.7304345599      -11.4874201539
 H        -9.5926219104       -6.5518575105      -10.7592146672
 H        -8.2441753325       -5.4299203517      -11.2729131515
 H       -12.2497578027       -5.6966802659       -6.5017364654
 H       -11.2695865101       -4.4516762482       -5.6844533311
 H       -11.4084469940       -6.2079790046       -4.0165330964
 H        -9.8810851499       -6.2607610653       -4.7261223619
 H       -13.5721750080      -10.3087821306       -4.6780624449
 H       -14.6464059608       -9.3166514039       -3.9758561355
 H       -14.9947999628      -11.3226214327       -2.5335637910
 H       -14.5502377479       -9.7483940738       -1.7668365741
 H       -12.2729635173       -8.9994085628       -0.3022726524
 H       -10.6117742767       -9.0666642937        0.0989007476
 H       -11.7333096113       -8.9319670942        1.4004282960
 H       -14.0589330332       -9.7209670233        0.1345811993
 H       -14.2442921110      -10.7667171636        1.4713643410
 H       -15.1849587351      -10.9532817985        0.0790518173
 H       -13.1522213731      -13.1103655789        1.1314320263
 H       -12.5234837845      -13.5857017369       -0.4503167514
 H       -14.2315593554      -13.3746047402       -0.0728298539
 H       -11.0791213700      -11.1256931400       -3.6629884419
 H       -10.0655099207      -10.6315977691       -5.0252259961
 H       -11.8609945659      -10.8139153213       -5.2024564099
 H       -10.3916858250       -7.7354511405       -2.3553758472
 H        -9.2661884852       -8.5199160399       -3.3573212560
 H       -10.4271015238       -9.4677647459       -2.2852734753
 H       -10.9501096335       -3.3088231700       -8.2745047418
 H       -12.2504720620       -4.3687007527       -8.4143781575
 H       -11.1835174109       -3.9347137237       -9.9239121818
 H       -11.5763118107       -6.6427805011       -9.9697755478
 H       -11.9482355195       -6.7211819231       -8.2261225015
 H       -10.4218350672       -7.5397782023       -8.7963432224
 H        -2.9766796440       -6.9758333844       -9.2846057892
 H        -3.9508185278       -5.5929391449       -8.8386506898
 H        -3.7784930339       -5.9193254804      -10.4922941717
 H        -3.7343052296       -8.7787711030      -10.5405745011
 H        -4.8169173370       -8.2554455268      -11.7419210171
 H        -5.3219641276       -9.4333204092      -10.4340858213
 H         0.2600504625       -6.7218812924       -4.4605530595
 H         0.0571493591       -6.2685425405       -6.0905339686
 H         0.4376138090       -7.8482364607       -5.6775173561
 H        -1.3565029000       -7.9569709061       -2.9821873343
 H        -1.2954295122       -9.3064790430       -4.0130067380
 H        -2.8283627442       -8.4369244729       -3.6710077801
 H        -4.3613258032       -1.2586651225       -4.4518229305
 H        -5.1473917474       -0.1003248679       -5.5998794166
 H        -3.6086124900       -0.7904621000       -5.9389349253
 H        -7.2280626722       -2.9830240684       -6.1241456396
 H        -6.8983910632       -1.9595634454       -4.7239257674
 H        -6.2036835528       -3.4864130967       -4.5897534300
 H        -4.4825835295       -2.3792583533      -12.4620755785
 H        -3.8839416029       -1.5371183443      -13.8222492789
 H        -5.2047566286       -0.8500620161      -12.8934848239
 H        -1.8102190122       -2.3475428686      -11.6906010732
 H        -0.9977267085       -0.8101113609      -11.9535209123
 H        -1.8558174992       -1.5108584863      -13.3446874815
 H         1.3657465181        1.8964338682      -10.0450355019
 H         0.4679318064        3.0043186688       -9.1236632973
 H         2.1977053351        3.1131464495       -9.2713613943
 H         0.5913792983        5.4076494723       -9.7588175920
 H         0.5049490829        5.8031503330      -11.5386800060
 H         2.0474538920        5.7698545162      -10.6273854354
 H         6.9357360976        0.1550031399      -13.7876904426
 H         7.3841259678       -0.0786799254      -12.0622315557
 H         8.5505424554        0.3396224587      -13.3516758750
 H         8.3171787242        2.3984088725      -10.9729751174
 H         6.5942603254        1.8906626109      -10.5960274506
 H         6.9598371595        3.5491678203      -11.2666200418
 H         9.0588517730        6.1085850604      -16.9513127823
 H         8.0792324840        6.8793822449      -18.2708006786
 H         8.5272252846        5.1690638712      -18.4549147892
 H         5.9741046345        6.0960148865      -15.0488110837
 H         6.6033831456        7.4615681617      -15.9032171182
 H         7.6209051028        6.2944112172      -14.9723731706
 H         1.4361302322        2.5216380159      -18.4890935088
 H         1.7093949734        2.7682956034      -16.7609003288
 H         2.8760956231        3.4700983859      -17.8180004339
 H         1.7347105515        4.9198432477      -19.8219059400
 H         0.3217569789        5.8810584532      -19.4992914101
 H         0.0347772598        4.2039150412      -19.7875982229
 H        -3.5629761250        7.2710054600      -14.3729410080
 H        -4.2564082274        8.1847770577      -15.5294195595
 H        -3.9877535493        8.8609831696      -14.0501513348
 H        -1.2625832007       10.5430617430      -16.2426939642
 H        -2.5181242007       10.6755997496      -15.0714905930
 H        -2.9895016127       10.1626592923      -16.7297485904
 Na        0.1642956197        5.4569483904      -14.6571792455
 Na       -6.7304549703       -5.1281481596       -7.7271631914
