232

 C        -1.0103056083       10.0582190680      -13.9366558147
 C        -1.2543433940        8.6332486112      -14.2644283003
 O        -0.6787344485        7.7509299896      -13.6261680058
 C        -2.3632629160        8.2864873293      -15.3323990185
 C        -1.6997994112        7.3803507439      -16.4505320138
 O        -0.6339509767        7.7648902541      -16.8997861680
 C        -2.3880835723        6.1186141191      -16.8472378458
 C        -1.6192324519        5.3657638242      -17.9197373421
 C        -0.2776392269        4.7189709502      -17.2980757538
 O        -0.4114075245        4.3044478944      -16.1294743347
 C         1.0229833091        4.8117245808      -18.1056095015
 C         1.8368254237        5.9656375414      -17.3783428865
 O         1.5440380904        6.2176337477      -16.2189537711
 C         3.1311316017        6.4883112623      -17.9600209786
 C         4.2719540494        5.8887393050      -17.1100274991
 C         5.6456960401        6.3029949530      -17.5706515866
 O         5.7714580414        7.1666263010      -18.4346065185
 C         6.9356638385        5.7612853726      -16.7512889847
 C         6.9574787790        4.2584087367      -16.4535022286
 O         5.9219429033        3.5881942951      -16.4743208143
 C         8.2887485251        3.4964074789      -16.1075118630
 C         8.0293031460        2.1689035699      -15.3495855756
 C         7.8785568232        2.5412610423      -13.9243735562
 O         8.2436314366        3.6448162030      -13.5136369139
 C         7.1540913395        1.5652713654      -12.9885207226
 C         5.5515434055        1.5368860618      -13.2336891738
 O         4.9724399417        0.5035717428      -13.0561888620
 C         4.7966049051        2.8478688228      -13.2234108546
 C         3.5127931193        2.6921621933      -12.3933062926
 C         2.3767547146        3.7849987565      -12.5417561422
 O         2.4036521185        4.6106203092      -13.4281381338
 C         1.1753265512        3.8235299000      -11.4378889860
 C        -0.1604458754        3.2884407536      -12.1220938656
 O        -0.5009959170        3.8370712269      -13.1622113294
 C        -1.0850022965        2.2552369301      -11.5080336536
 C        -1.8957113505        1.6019672050      -12.7258549012
 C        -3.3059476165        1.0991318175      -12.3323678859
 O        -4.3053664866        1.7852737537      -12.4614294991
 C        -3.4521145338       -0.4676393807      -11.8358831566
 C        -3.7742685045       -0.5124462467      -10.3051628004
 O        -2.9379619161       -0.5680699314       -9.4131446413
 C        -5.2574335628       -0.4327166842       -9.9280859856
 C        -5.3754337361       -0.4908888197       -8.3989498691
 C        -5.4475129863       -1.9260169300       -7.8668785022
 O        -5.6246842405       -2.8781880901       -8.5567011588
 C        -5.2421716934       -2.1513894375       -6.2531805282
 C        -4.2523418943       -3.4479208368       -6.1938716700
 O        -4.5733045072       -4.4820154830       -6.7412968612
 C        -3.0412336054       -3.3679508955       -5.3700921581
 C        -2.1777859050       -4.6385499960       -5.5286545067
 C        -2.8331824806       -5.9309627190       -5.0334488755
 O        -3.9023364600       -5.9392375530       -4.4901180949
 C        -1.9023464102       -7.2821606214       -5.1335620095
 C        -2.6103355317       -8.2070790969       -6.2720544871
 O        -2.0828317858       -8.3168689391       -7.3684351800
 C        -4.0297536047       -8.7553140396       -6.0579456608
 C        -4.6860955573       -9.0394621117       -7.3923523479
 C        -5.2234239266       -7.7549427261       -8.0153326337
 O        -5.9964639655       -7.0766490352       -7.4081857790
 C        -4.8222623554       -7.3998068226       -9.5857263738
 C        -5.9372910550       -6.4289783737      -10.1179009255
 O        -5.7132428372       -5.3137915753      -10.4249329529
 C        -7.2849262201       -7.0582973409      -10.0697084586
 C        -8.4334722548       -6.2916287552      -10.5903648753
 C        -8.9671786822       -5.2370318448       -9.5199916239
 O        -8.3735051951       -4.2362433530       -9.2355865452
 C       -10.3289952473       -5.5051788557       -8.7165828457
 C        -9.9449717803       -5.5417280285       -7.0828545669
 O        -8.7815789127       -5.7603395708       -6.8136602659
 C       -11.1094896397       -5.4983305420       -6.1679723711
 C       -10.9460727331       -6.2272701140       -4.8311984364
 C       -11.2849738718       -7.7670311955       -5.1128664036
 O       -11.8426006240       -8.0830617737       -6.1715464005
 C       -11.1549287072       -8.8141359903       -3.9785559575
 C       -12.6518289769       -8.7652218620       -3.3464851701
 O       -12.9776515875       -7.6980163904       -2.8001575502
 C       -13.6646019209       -9.8912338189       -3.3825157543
 C       -14.2006002638      -10.1125872644       -1.9950215436
 C       -13.3579647934      -11.3490667436       -1.4235570363
 O       -12.6707050471      -11.9674423425       -2.1676165665
 C       -13.2981174597      -11.6044512748        0.0828325027
 C       -11.8106154359      -11.1004527413        0.4269994840
 O       -10.9910396994      -11.9888333083        0.7369385480
 C       -11.3712886192       -9.6996382887        0.2690670983
 C       -14.4437901591      -10.7655090185        0.7996068968
 C       -13.2832844137      -13.0697626044        0.3142906860
 C       -10.9498996408      -10.2970355622       -4.5342046609
 C       -10.0937806574       -8.4884899464       -2.9256477113
 C       -11.3512575772       -4.3749969660       -8.9904959843
 C       -10.8175198362       -6.8913480744       -8.9978378093
 C        -3.5014803830       -6.6339668599       -9.4566845332
 C        -4.6561168650       -8.4857391560      -10.6566461907
 C        -0.5046253663       -7.0025837503       -5.5125959977
 C        -1.9451434246       -7.9766991858       -3.7991192318
 C        -4.7108944631       -0.9884435206       -5.4547022782
 C        -6.6843150722       -2.6878198226       -5.8452887114
 C        -4.5658507881       -1.0765102159      -12.6254768379
 C        -2.1521802331       -1.3708661821      -12.0577063526
 C         1.4255836036        3.1123228731      -10.1138680093
 C         0.7435382305        5.3496192368      -11.2131921319
 C         7.7236360420        0.1478170296      -13.1992278394
 C         7.2820884006        1.9990312264      -11.4533663179
 C         8.1093039345        6.2504565105      -17.5935022745
 C         6.9796248164        6.4086063391      -15.3565007185
 C         1.8023850886        3.5380110045      -17.6563132501
 C         0.9425548709        4.9014779277      -19.5715897222
 C        -3.4851154891        7.6808619269      -14.5414650704
 C        -2.8364860136        9.5273296433      -16.1198835742
 H        -0.1421842993       10.3171062799      -13.2972972967
 H        -1.9406017933       10.5994188819      -13.6117408878
 H        -0.7992815338       10.5151213777      -14.9348493385
 H        -3.3114652997        6.5206146316      -17.2210375940
 H        -2.4958809864        5.4255010099      -15.9656336057
 H        -1.3863483521        6.0470984991      -18.7378410592
 H        -2.2713134338        4.5936667318      -18.3103888295
 H         3.2199712545        7.5707237226      -17.9340219880
 H         3.3514853335        6.2426656214      -18.9818758348
 H         4.2732427344        4.7933755298      -16.9962781373
 H         4.1533168884        6.3819496778      -16.0754954280
 H         8.8930454159        4.1120753017      -15.5317486473
 H         8.7765817909        3.2419754089      -17.0280998729
 H         8.8368102347        1.4113956278      -15.5630538793
 H         7.0433626533        1.8586266223      -15.7314246451
 H         4.4537141121        2.9051681522      -14.2972800527
 H         5.4528798975        3.5497800568      -12.7760038302
 H         3.7783440766        2.7969676061      -11.3318184086
 H         3.0715544938        1.6689484169      -12.5213957823
 H        -1.7826730381        2.7828651583      -10.8972108381
 H        -0.4997723282        1.5754852159      -11.0286569226
 H        -1.3037230091        0.9713603314      -13.2983582385
 H        -2.1162203621        2.3431168369      -13.5593377439
 H        -5.8188171613       -1.3075387791      -10.3521774886
 H        -5.8935282377        0.3932226647      -10.3050734510
 H        -6.2152306797       -0.0317497072       -8.1004538575
 H        -4.4815002047       -0.0355035983       -8.0530049466
 H        -3.2467692955       -3.3963017152       -4.2845681341
 H        -2.4792735354       -2.4096757245       -5.5232146989
 H        -1.2838698876       -4.5744692430       -4.8765565239
 H        -1.8525072072       -4.6026768452       -6.6114272769
 H        -4.7245096211       -7.9608130424       -5.4800556943
 H        -4.1851128622       -9.7744729768       -5.4876008823
 H        -5.5193756393       -9.6604348068       -7.3370399503
 H        -3.9510974591       -9.5533335494       -8.1189487450
 H        -7.5074335484       -7.4034100298       -9.0700740712
 H        -7.2816568964       -7.9773827612      -10.7711040865
 H        -9.1496370899       -7.0205471911      -10.7392139522
 H        -8.2244002541       -5.7046751796      -11.4169166320
 H       -11.9754635941       -5.8448410498       -6.7350479825
 H       -11.3030982910       -4.4317711079       -5.9783930359
 H       -11.6008566807       -5.8238685815       -4.0058870286
 H        -9.9438209622       -5.9979415472       -4.4526980088
 H       -13.3947438254      -10.8463117907       -3.8404096235
 H       -14.3784728561       -9.6185935303       -4.1290258607
 H       -15.2634192354      -10.4463785256       -2.1485178794
 H       -14.2039801774       -9.4124579834       -1.1782502321
 H       -10.9111777116       -9.6588648130       -0.7126043581
 H       -10.6474656734       -9.3484320895        1.0663812441
 H       -12.1182464545       -8.9228084772        0.2906765977
 H       -14.2925501172       -9.7734518153        0.9802979403
 H       -14.6973470524      -11.2000014787        1.7985310987
 H       -15.3837462902      -10.7740857669        0.2402936571
 H       -13.1318188337      -13.3234641505        1.3455103122
 H       -12.5719943551      -13.4538807810       -0.4049752141
 H       -14.2471143965      -13.5927873825        0.0007402912
 H       -11.2629736870      -11.0493450842       -3.7817480015
 H       -10.0424416413      -10.4982610282       -4.9641163955
 H       -11.6083474419      -10.5142111948       -5.3965426887
 H       -10.5136526444       -7.7463651073       -2.2109826608
 H        -9.2287769370       -7.9119658153       -3.3545433932
 H        -9.6218987420       -9.4155566523       -2.5331057973
 H       -10.6939148384       -3.5134346899       -8.8894038715
 H       -12.1973836918       -4.5172441213       -8.2799706858
 H       -11.7147903317       -4.4331830743      -10.0341902861
 H       -11.0661704043       -7.0520945503      -10.0417396387
 H       -11.7518109412       -7.0513762030       -8.4737079753
 H       -10.1189485725       -7.6238561003       -8.9412254960
 H        -2.6702566348       -7.2018025171       -8.9465359227
 H        -3.6679441616       -5.7288911202       -8.8906890507
 H        -3.2068788100       -6.2375245741      -10.4254730203
 H        -3.8127700717       -9.1092888833      -10.4794312611
 H        -4.5180336568       -8.1287392417      -11.6388172549
 H        -5.5654158320       -9.1684417113      -10.5517643729
 H        -0.0426025525       -6.2998585906       -4.8311972612
 H        -0.3429280470       -6.5979557475       -6.4783615984
 H         0.1978315152       -7.8834122461       -5.4976168740
 H        -1.2158356831       -7.6055382246       -3.0840341075
 H        -1.6833798290       -9.0362069080       -3.9272713627
 H        -2.9039855675       -7.8948064087       -3.2083911975
 H        -4.6456990660       -1.1982216297       -4.4178355116
 H        -5.3412383463       -0.1476574772       -5.6078019983
 H        -3.8124731974       -0.6301326122       -5.8102933073
 H        -6.6726906178       -3.7615535618       -5.7896379872
 H        -7.4552166047       -2.4993913013       -6.5707550074
 H        -6.9988717044       -2.1697883270       -4.9320494606
 H        -4.6852256881       -2.1838294139      -12.5757350887
 H        -4.4382334930       -0.8627930263      -13.6504012761
 H        -5.4781061899       -0.6456371531      -12.2856161866
 H        -2.2906988646       -2.4207255629      -11.7947996531
 H        -1.3285157805       -1.0760104935      -11.4027256393
 H        -1.8017247328       -1.3532855096      -13.1176351285
 H         1.5465007958        2.0438646074      -10.2290342283
 H         0.6155040833        3.2721912851       -9.3411329671
 H         2.3081519870        3.5146461459       -9.6071531477
 H        -0.2428593789        5.2862992452      -10.8972244216
 H         0.8521271001        5.9535079077      -12.1036523937
 H         1.2525956248        5.7297008245      -10.3047534801
 H         7.4393924653       -0.3856496236      -14.0809448556
 H         7.3738905203       -0.4741753581      -12.3568475216
 H         8.8421091036        0.0840296636      -13.0694789713
 H         8.2383351721        1.6159417702      -11.1585095179
 H         6.5753762704        1.6239503374      -10.7792157244
 H         7.2501717899        3.1667715310      -11.4921663810
 H         8.9849765272        5.7961020500      -17.2065164855
 H         8.1361254117        7.3712377608      -17.5416745238
 H         7.8856517024        5.8882439752      -18.5439883473
 H         6.1386639543        6.1041694276      -14.7616088317
 H         7.0059370452        7.5643916830      -15.3781790074
 H         7.8170214103        6.0075426687      -14.8297403824
 H         1.0956643291        2.6523421322      -17.6446644137
 H         2.2583103093        3.6713781723      -16.7045690935
 H         2.6119143786        3.3324667666      -18.3482243533
 H         1.9400889799        4.7024522897      -19.9982436459
 H         0.5897578586        5.8917716199      -19.8566625282
 H         0.3138626148        4.0958396445      -20.0928619830
 H        -3.1932588935        6.7219601298      -14.1533249626
 H        -4.3692353488        7.3840632469      -15.0821901310
 H        -3.9175263244        8.1288630380      -13.6559438044
 H        -1.9762481103        9.8354344446      -16.6373450872
 H        -3.0440338651       10.2867157886      -15.3395108845
 H        -3.6289181818        9.2111841495      -16.8120672617
 Na        0.3711924335        5.8132522189      -14.1596347567
 Na       -6.8359023535       -4.8190355584       -7.8115747860
