232

 C        -0.8623753151       10.2614781142      -14.1590814664
 C        -1.2709018746        8.7123468071      -14.3098279782
 O        -0.6971233189        7.9273813748      -13.5987503982
 C        -2.4317324533        8.1276244848      -15.2079036577
 C        -1.8362230792        7.2052145736      -16.3589737708
 O        -0.7411527906        7.3568348027      -16.7959911053
 C        -2.6415793985        6.1167797436      -17.1542765820
 C        -1.6157264565        5.2835867664      -18.0480629381
 C        -0.3807536232        4.8176045796      -17.3576024033
 O        -0.4761556446        4.5603945800      -16.1838607019
 C         1.0915917668        4.7961734817      -18.0748096989
 C         1.9537608811        5.9622798320      -17.2211743690
 O         1.7236515282        6.3267928776      -16.0885931632
 C         3.2500214586        6.5213998639      -17.8238449101
 C         4.3868368703        5.9699155496      -16.9585347383
 C         5.7032631675        6.5391862770      -17.3488415075
 O         5.8216904340        7.4741322440      -18.1219740393
 C         6.9805650964        5.9005550663      -16.7263134990
 C         6.9333552458        4.3663007665      -16.5066719851
 O         5.8791753775        3.7596487762      -16.5442649729
 C         8.2373390255        3.6127705629      -16.3514586657
 C         8.0378893054        2.2306444371      -15.5395473295
 C         7.8701136268        2.3697857577      -13.9907078858
 O         8.3934989139        3.2933833867      -13.4188409019
 C         7.1156126741        1.3349978047      -13.0708687184
 C         5.6192649951        1.2653155970      -13.1821396500
 O         4.9212935057        0.2701265589      -13.2676705462
 C         4.8233987857        2.6324124626      -13.2990990361
 C         3.5088971504        2.5912502987      -12.4023398275
 C         2.4454801021        3.8194649454      -12.6337461114
 O         2.5407594861        4.7243481052      -13.4624282385
 C         1.2265819469        3.9285978330      -11.5599488537
 C        -0.0986973547        3.4415546704      -12.4574751178
 O        -0.2971498023        3.8920472951      -13.5313251472
 C        -1.0775384847        2.2867101571      -11.8799628887
 C        -1.9261849800        1.5781219998      -12.8872506555
 C        -3.4187159402        1.0187635669      -12.4144556648
 O        -4.3820913047        1.7641204393      -12.3678111402
 C        -3.5002525402       -0.5104547832      -11.8982986017
 C        -3.9097655532       -0.5388936954      -10.2874955671
 O        -3.0747219069       -0.9590601870       -9.5298751411
 C        -5.3016025280       -0.0224427647       -9.7199268099
 C        -5.5328634113       -0.3272743149       -8.1863773222
 C        -5.3488636011       -1.8524753316       -7.7669511412
 O        -5.2538107380       -2.6618799643       -8.6942604760
 C        -5.2830366234       -2.2170472874       -6.1996775091
 C        -4.3389787027       -3.3917505373       -6.1289982315
 O        -4.6938246218       -4.5104440515       -6.5287022906
 C        -2.9826091832       -3.2959386442       -5.5013568242
 C        -2.1186444070       -4.5833076490       -5.5554371212
 C        -2.8269967676       -5.8680672041       -4.9792238937
 O        -3.9982826892       -5.8957409701       -4.6015991202
 C        -2.0265561097       -7.2111802870       -5.0710772145
 C        -2.7253110023       -8.1140736151       -6.2381417941
 O        -2.1127283797       -8.3234220053       -7.2620427840
 C        -4.0745780775       -8.6833149127       -5.9602248176
 C        -4.8101813551       -9.0802092639       -7.2926963469
 C        -5.0752371091       -7.7269252386       -8.0249110424
 O        -5.6882354972       -6.8630520683       -7.3517221716
 C        -4.7633083964       -7.4417233142       -9.4662065941
 C        -5.9940361740       -6.6034317453      -10.0641233622
 O        -5.8266814082       -5.4009050808      -10.2564528794
 C        -7.3236575842       -7.1570050167      -10.3480177484
 C        -8.3531046237       -6.0545758522      -10.7417632057
 C        -8.9365297640       -5.2804154188       -9.5448771499
 O        -8.5428048935       -4.1100864759       -9.3371773678
 C       -10.3018830576       -5.7075479153       -8.7699573405
 C        -9.9982395561       -5.7213416595       -7.2846406311
 O        -8.8401616819       -5.8868372787       -6.8635535981
 C       -11.0732389099       -5.3959686094       -6.1209139811
 C       -10.7977298245       -6.3249165857       -4.9186212634
 C       -11.4019301743       -7.7030717692       -5.1421213336
 O       -12.1336520684       -7.9942571338       -6.0486786853
 C       -11.2218735555       -8.7619275513       -3.9995235986
 C       -12.6082557917       -8.5571562966       -3.2279201732
 O       -12.7528614086       -7.5879397481       -2.5623912599
 C       -13.7340459312       -9.6643687445       -3.2093139429
 C       -14.1981850994      -10.1277899418       -1.8301065201
 C       -13.3455929851      -11.3452867108       -1.3390348073
 O       -12.7296528197      -12.0850498826       -2.1503481247
 C       -13.3683915931      -11.7044696400        0.2208649915
 C       -11.8642462916      -11.2476977139        0.5386491448
 O       -10.9725185656      -12.0320311023        0.7221139473
 C       -11.5750532860       -9.7319601052        0.4048224021
 C       -14.2912064509      -10.8960138677        1.1774971787
 C       -13.5964783234      -13.1288555404        0.5368010426
 C       -10.8566133178      -10.1225859195       -4.7098699177
 C       -10.1057153798       -8.3917761839       -2.9441010761
 C       -11.2792245910       -4.5926119485       -9.2032101005
 C       -11.0050110038       -7.0890938202       -9.1542105056
 C        -3.4359024542       -6.6223683184       -9.4023259283
 C        -4.5355530090       -8.8322258952      -10.2854893881
 C        -0.6365357148       -7.0075957113       -5.5545203863
 C        -2.2254801497       -7.9160731315       -3.7134129279
 C        -4.8978120376       -0.9418358902       -5.3765302804
 C        -6.6990769127       -2.6543635750       -5.7554015601
 C        -4.7146542021       -1.1296273206      -12.7300788667
 C        -2.2138932709       -1.3015329290      -12.0493745816
 C         1.5462153974        3.0536075882      -10.3180911821
 C         1.0183745571        5.3793821786      -11.2182208847
 C         7.7528625436       -0.1126754744      -13.0922097382
 C         7.3888503957        1.8583110815      -11.5650416208
 C         8.2733897237        6.3497324442      -17.4731040753
 C         7.1182903551        6.5199632757      -15.2606049350
 C         1.8657570041        3.4908717517      -17.7019266005
 C         0.9621331979        4.9576917516      -19.5808658733
 C        -3.4340744000        7.4314014975      -14.3204199804
 C        -3.2242961292        9.4212557569      -15.8491224955
 H        -0.1013291117       10.3180542190      -13.4092153447
 H        -1.6677147033       10.8185584268      -13.7254517014
 H        -0.5857569966       10.8060155359      -15.0213659162
 H        -3.3621327911        6.6571503761      -17.8273379786
 H        -3.1598964213        5.4941453230      -16.4780520781
 H        -1.3652546524        5.8686608190      -18.9540478181
 H        -2.1115458452        4.3413202725      -18.3987651239
 H         3.0870763422        7.6420294710      -17.8391490848
 H         3.4894894735        6.2140982045      -18.8890044353
 H         4.4402751563        4.8657275998      -17.0326966620
 H         4.1305302037        6.1845575858      -15.9507897614
 H         9.0192111784        4.2104273059      -15.7752525567
 H         8.6671646550        3.4102013198      -17.3713969961
 H         8.9593803281        1.7376595688      -15.7070556259
 H         7.1921915265        1.6568116590      -15.9418206065
 H         4.5697740012        2.6395854960      -14.3100704892
 H         5.5058452694        3.3836968490      -12.8774814208
 H         3.8009223108        2.6173203611      -11.3491085202
 H         2.9051352212        1.7176429640      -12.5674474419
 H        -1.7297899872        2.9510602688      -11.2882299961
 H        -0.4778975644        1.5360256943      -11.2303408248
 H        -1.3502525040        0.7564426924      -13.4251251271
 H        -2.0275513160        2.1530477962      -13.7440896548
 H        -6.1571354086       -0.4145092602      -10.2068248614
 H        -5.4125800644        1.0325796406       -9.9633480258
 H        -6.6911528687       -0.1909386329       -7.9759743363
 H        -4.8953467003        0.3938852890       -7.5259783328
 H        -3.1267723303       -2.8975546626       -4.4702073879
 H        -2.3313603702       -2.5512643140       -5.9363130255
 H        -1.1052129304       -4.5343791195       -5.0770026146
 H        -1.9102877508       -4.5637823066       -6.6066917685
 H        -4.6201498179       -8.0373391675       -5.4133085903
 H        -3.9704095858       -9.5471000727       -5.3776088391
 H        -5.8588055760       -9.5824948450       -7.1189935337
 H        -4.2198657270       -9.7321191690       -7.8838229699
 H        -7.5702381199       -7.7099977231       -9.4009292985
 H        -7.3235575626       -7.8417360114      -11.1510956004
 H        -9.2554861075       -6.5846758034      -11.2501449593
 H        -7.9512913531       -5.2238235005      -11.4510669956
 H       -12.1152617547       -5.5606674772       -6.4437292386
 H       -11.0817493645       -4.3802169416       -5.7004395367
 H       -11.2042361175       -5.9078741625       -4.0410681696
 H        -9.7367098237       -6.3491306402       -4.7058546311
 H       -13.3810517308      -10.3981407703       -3.9120769430
 H       -14.5538424679       -9.2833835243       -3.8390301631
 H       -15.1940088296      -10.4869513471       -1.7284932860
 H       -14.1974401964       -9.2576317247       -1.1129674842
 H       -10.8147781163       -9.4669449185       -0.3620156979
 H       -11.2108970038       -9.4623747848        1.3650210198
 H       -12.4022431957       -9.0115438275        0.2534821250
 H       -13.9507147030       -9.8949340157        1.6002064386
 H       -14.5592931189      -11.4577712504        2.0269890878
 H       -15.1970461222      -10.6749382854        0.6846352738
 H       -12.9783768518      -13.4658665131        1.4122898712
 H       -13.3961152553      -13.7165741526       -0.3460073374
 H       -14.6329361117      -13.3101517054        0.6777381335
 H       -10.7767819146      -10.9178824501       -3.9862545419
 H        -9.9071231371       -9.9956575702       -5.3557552338
 H       -11.4886329096      -10.5233534520       -5.4693522377
 H       -10.4117087738       -7.4747665643       -2.5500155331
 H        -9.0968361214       -8.4089656181       -3.2594880641
 H       -10.0250040300       -9.2017621376       -2.2307919163
 H       -11.0122625335       -3.6969656026       -8.6598525817
 H       -12.2428374125       -5.0790012304       -9.1057707147
 H       -11.1932962420       -4.4036543255      -10.2619593868
 H       -11.4817907435       -7.1882648233      -10.1512339650
 H       -11.7823192421       -7.3329594598       -8.4173246596
 H       -10.2518943824       -7.9505170155       -9.3715790032
 H        -2.6936871681       -7.3568841288       -9.2733092149
 H        -3.3734631369       -6.0351655344       -8.4524240931
 H        -3.1727482653       -5.9541638944      -10.2489097208
 H        -3.5457207340       -9.2578617460      -10.0747895386
 H        -4.4890960686       -8.5652998339      -11.4109295869
 H        -5.2360817472       -9.5921512208      -10.1234347557
 H         0.0709757649       -6.5315092253       -4.9072652519
 H        -0.4732775096       -6.5007975602       -6.4949830237
 H        -0.2572162705       -7.9536584881       -5.6590010699
 H        -1.7345881643       -7.3276170421       -2.9101577486
 H        -1.7616105763       -8.9107285538       -3.7208351879
 H        -3.2174827166       -8.0640462101       -3.3643742042
 H        -4.8432543357       -1.3055320792       -4.3187997921
 H        -5.6268293593       -0.1066214685       -5.3393051529
 H        -3.8881278482       -0.4973874809       -5.6404339789
 H        -6.7535465835       -3.7559706651       -5.5092308276
 H        -7.4888408329       -2.4633490236       -6.5206670556
 H        -6.9184468995       -2.0828456180       -4.8571174169
 H        -4.8973170859       -2.1501508363      -12.6129193937
 H        -4.4940360883       -0.9588163903      -13.8198347490
 H        -5.6491194804       -0.5961321174      -12.5229258312
 H        -2.0267494881       -2.0610766058      -11.2665671247
 H        -1.3337533456       -0.6414838340      -11.9732802988
 H        -2.1462481419       -1.8193050901      -12.9993304507
 H         1.6177390775        1.9799422332      -10.5829371916
 H         0.7841945618        3.1469647844       -9.6641984719
 H         2.3718514344        3.3990289147       -9.7486325790
 H        -0.0853694170        5.5701184482      -10.9861541902
 H         1.3049577785        5.9367442934      -12.0947239161
 H         1.6272192037        5.5713266700      -10.3627526927
 H         7.6870379437       -0.5866747875      -14.1188373758
 H         7.4686629757       -0.9200667200      -12.4392485140
 H         8.7629762356        0.0655381541      -12.9126053659
 H         8.4544811530        2.1275534298      -11.5168353257
 H         7.2686952170        1.0017358987      -10.8533795035
 H         6.7513441815        2.6470561203      -11.3005307522
 H         9.1094510748        5.6650613754      -17.1668030150
 H         8.4262997830        7.3359161781      -17.1504674401
 H         8.0654896501        6.2859394756      -18.5805831299
 H         6.4362358346        6.1035468888      -14.4905995390
 H         6.9226739439        7.5461904284      -15.3156141558
 H         8.1493829551        6.4925545062      -14.9279106454
 H         1.4380276687        2.6618383708      -18.2486867263
 H         1.9793907689        3.2977968885      -16.5812556920
 H         2.8613446696        3.5620707146      -18.1039630208
 H         1.8514916539        5.2105530600      -20.1393120192
 H         0.2131489936        5.7434198292      -19.7724847024
 H         0.7137424911        4.0600034103      -20.0260682892
 H        -3.0635817744        6.6078774147      -13.7135308423
 H        -4.2452348870        6.9262256064      -14.8080333041
 H        -3.8897823996        8.0480883408      -13.5653585129
 H        -2.5563631281       10.0232395416      -16.5176157703
 H        -3.6240594621        9.9214429465      -15.0115963495
 H        -4.0213081259        8.9359635141      -16.3714944964
 Na        0.3895129728        5.8738562093      -14.4625334212
 Na       -6.4944751899       -4.7955945754       -8.0598068099
