232

 C        -0.9060395263       10.1160265117      -14.2813729186
 C        -1.2711646008        8.7157039360      -14.2894136033
 O        -0.5692970473        7.9130448841      -13.7481089521
 C        -2.5464364534        8.1229640475      -15.1933975310
 C        -1.8299429480        7.1523013396      -16.4088871110
 O        -0.6385672203        7.4046585262      -16.5629603554
 C        -2.6700666379        6.1366370663      -17.1590139785
 C        -1.7924186956        5.3230056787      -18.1395732026
 C        -0.4469145041        4.9435606852      -17.2917827013
 O        -0.6032314656        4.5216065094      -16.1911453557
 C         1.0738215737        4.8942314702      -17.9450670408
 C         1.9690987422        6.0069166169      -17.3275415812
 O         1.7787683692        6.3867367209      -16.1694888891
 C         3.3537046451        6.5297749973      -17.9234240725
 C         4.4689986567        6.0627100299      -16.9548290085
 C         5.7991623638        6.6102393669      -17.3140590671
 O         5.9348667575        7.6272453126      -18.0106416640
 C         7.0891745707        6.0120944990      -16.5953029542
 C         6.9922929565        4.3673474757      -16.4884337789
 O         5.8986827085        3.7677919168      -16.5378648930
 C         8.2460276111        3.4797258899      -16.3101807251
 C         7.9321756722        2.2027005079      -15.4733412271
 C         7.8793860833        2.4041502173      -13.9594094524
 O         8.5098871965        3.3418139159      -13.4679847267
 C         7.1181143953        1.3260681898      -13.0684320342
 C         5.4921396627        1.1641130195      -13.2799563596
 O         4.9348295623        0.1109691679      -13.3862466056
 C         4.7320376334        2.6524962131      -13.3464719308
 C         3.4697213458        2.6443522457      -12.4783314738
 C         2.5230241430        3.7796406158      -12.6511525213
 O         2.6329169664        4.6071691827      -13.5520928252
 C         1.2639724779        3.8760126207      -11.7296334264
 C        -0.0208144609        3.3867169955      -12.5211353381
 O        -0.1762013871        3.9529309987      -13.5955031966
 C        -0.9933438825        2.2976071661      -11.9762725318
 C        -2.0788913170        1.6413177725      -12.8779037162
 C        -3.3705897800        1.0359069040      -12.2513243807
 O        -4.3556780859        1.7545638047      -12.3009213972
 C        -3.5327758095       -0.4862005231      -11.8180009282
 C        -3.9401237393       -0.5515642296      -10.2628745547
 O        -3.1139097129       -1.0811934176       -9.5682618408
 C        -5.1889547890        0.0809850873       -9.7451196653
 C        -5.4406775386       -0.2611587131       -8.2727442558
 C        -5.3964710393       -1.7500998604       -7.7962968295
 O        -5.2302349611       -2.6274270201       -8.5495787105
 C        -5.3594984585       -2.1153980115       -6.2588758829
 C        -4.4108235547       -3.3688551504       -6.1519171789
 O        -4.7692345779       -4.4292431001       -6.6219255096
 C        -3.0363089972       -3.2870089168       -5.4914248937
 C        -2.1248996593       -4.5611380551       -5.5977569250
 C        -2.8900438904       -5.8200961818       -5.0770375276
 O        -3.9351189022       -5.7188158875       -4.5081403309
 C        -1.9940960311       -7.3041950414       -5.1041763942
 C        -2.7406600355       -8.2022988281       -6.1581950680
 O        -2.2102703383       -8.3176095424       -7.2510018222
 C        -4.1424781338       -8.6993884427       -5.8939480772
 C        -4.8546699441       -9.0728417249       -7.1810713270
 C        -5.2141780651       -7.7742444934       -7.9017279867
 O        -5.6661903175       -6.8919756651       -7.2401044063
 C        -4.7478617041       -7.5170889624       -9.4828725524
 C        -5.9814924351       -6.6148493707      -10.1571495107
 O        -5.7152706173       -5.4380974638      -10.1584534189
 C        -7.3561207382       -7.2338369925      -10.4331100400
 C        -8.3119365206       -6.1014536296      -10.8680004606
 C        -9.0103986698       -5.2868223843       -9.6856043201
 O        -8.5048036158       -4.2758415534       -9.2370848802
 C       -10.3330579211       -5.7378754429       -8.8829325846
 C        -9.8952352997       -5.6645958611       -7.3414980373
 O        -8.7378307915       -5.8503967652       -6.9892381724
 C       -10.9949188559       -5.4140801515       -6.2840576478
 C       -10.8037387830       -6.2798903372       -5.0506865283
 C       -11.4696124035       -7.6854281114       -5.1840746630
 O       -12.2133412979       -7.9514481946       -6.1208340953
 C       -11.2634853903       -8.7192285108       -3.9860225823
 C       -12.5093794333       -8.5856731760       -3.0157236321
 O       -12.6238727808       -7.4959568409       -2.4457059350
 C       -13.6754096407       -9.6253248914       -3.0296606362
 C       -14.2548312642      -10.1997829745       -1.8006773514
 C       -13.5130951597      -11.4455741224       -1.2315093779
 O       -12.8512186918      -12.1040847062       -2.0358970200
 C       -13.3580228556      -11.6864206120        0.2663122679
 C       -11.8675043844      -11.2551396334        0.6308905268
 O       -10.9686099245      -12.0923135525        0.7908789516
 C       -11.5659416238       -9.7517463591        0.5931967911
 C       -14.2246851375      -10.8277869467        1.1913390599
 C       -13.6053726551      -13.2357615236        0.4358403987
 C       -10.9792201089      -10.0537881260       -4.6603639752
 C       -10.0968969891       -8.3273144202       -3.0292378856
 C       -11.4382291886       -4.6841096853       -9.1370243392
 C       -10.8870003777       -7.0959367221       -9.1715944220
 C        -3.5739342906       -6.5988827207       -9.5919135370
 C        -4.4993145243       -8.8895454280      -10.1308685799
 C        -0.5590731912       -7.0323103314       -5.3687228907
 C        -2.2068047820       -7.9209949227       -3.7096164161
 C        -4.8838240734       -0.9376598962       -5.3561879800
 C        -6.8077207532       -2.5719433456       -5.8386448601
 C        -4.6940216434       -1.0694204782      -12.7063638831
 C        -2.3566036142       -1.3571948901      -11.9667123444
 C         1.4154024777        2.9370775568      -10.5022487721
 C         1.0715470414        5.4018986736      -11.2366276866
 C         7.6624882806       -0.1506103588      -13.2753836893
 C         7.4622837373        1.7364711155      -11.5318744623
 C         8.2805853671        6.4164794193      -17.5076540941
 C         7.1570511277        6.5157246267      -15.1503724529
 C         1.6974711427        3.5494828339      -17.6674753678
 C         1.1103436776        5.1383821977      -19.4407572620
 C        -3.3552559827        7.2215286821      -14.2861310411
 C        -3.3775681241        9.2069424934      -15.8725828733
 H        -0.0181202475       10.2849744854      -13.6642322912
 H        -1.6363377263       10.8324083618      -13.9107134388
 H        -0.7823088037       10.4058981745      -15.3039622912
 H        -3.5056902605        6.7353407319      -17.6545016039
 H        -3.1219188102        5.5824802996      -16.3066026529
 H        -1.6090661026        5.9089566504      -19.0401012009
 H        -2.2560717618        4.3811547148      -18.4309383936
 H         3.2194478580        7.6111023164      -17.9438226176
 H         3.6006786168        6.1880025598      -18.9320343983
 H         4.5206423193        5.0155692922      -16.7726071443
 H         4.1760375028        6.4919947073      -15.9968705061
 H         9.1374335897        3.9999505744      -15.8841282621
 H         8.5731557788        3.1304248973      -17.3726645260
 H         8.7094315917        1.5229210925      -15.7377188007
 H         6.9331621774        1.8198043558      -15.7576287518
 H         4.4880497788        2.7812395582      -14.4018001169
 H         5.4802391499        3.2966871489      -12.8828245115
 H         3.7328936909        2.6125944307      -11.4951746424
 H         2.7815295246        1.7526773996      -12.6942623806
 H        -1.4743997517        2.9392326229      -11.1411777791
 H        -0.3249413599        1.4968438852      -11.5785798579
 H        -1.6943434825        0.8149925504      -13.5004862155
 H        -2.3119830966        2.3085173696      -13.7298693658
 H        -6.0806786223       -0.0128718476      -10.3043264591
 H        -5.0104775629        1.1839615593       -9.8612683493
 H        -6.4370624467        0.0033310752       -7.9674295126
 H        -4.6618843119        0.3739362317       -7.6329532358
 H        -3.0674699435       -2.9021162538       -4.4481584733
 H        -2.4634373605       -2.5479953001       -5.9473342212
 H        -1.2694818145       -4.5369258470       -4.9007069807
 H        -1.6252407334       -4.4878364998       -6.5458082611
 H        -4.6830901677       -7.9932190566       -5.3216436215
 H        -4.1657436081       -9.5295613667       -5.2774252642
 H        -5.6949880605       -9.7120027928       -7.0648926324
 H        -4.1058636570       -9.5327411180       -7.8143824498
 H        -7.5811765545       -7.8183083077       -9.6296861828
 H        -7.2604972366       -7.8501460753      -11.3427131135
 H        -9.1630515248       -6.4441658442      -11.5345134556
 H        -7.7214914785       -5.2961994736      -11.4239515235
 H       -12.0362332959       -5.4208838136       -6.6367663581
 H       -10.8775202474       -4.4187843242       -5.8722984194
 H       -11.1358921038       -5.6889823267       -4.1697114531
 H        -9.7151627548       -6.3788746508       -4.9064118939
 H       -13.2987693267      -10.2692572672       -3.9005177911
 H       -14.5222229680       -9.1369932696       -3.5913789665
 H       -15.2761968004      -10.5862449242       -1.9527260164
 H       -14.4776891788       -9.3511076760       -1.1435214529
 H       -10.7351090391       -9.4299412081       -0.0337169592
 H       -11.4107657317       -9.3939523107        1.6181818918
 H       -12.3747138025       -9.1801737338        0.2405086478
 H       -13.9145731792       -9.7953771142        1.2532067042
 H       -14.1282078749      -11.1789659340        2.2976209851
 H       -15.3342124418      -10.7693342177        0.9578652758
 H       -13.1239430709      -13.6699569173        1.3015043572
 H       -13.3482479966      -13.7968453879       -0.4309898924
 H       -14.7512219629      -13.3215767800        0.4298867530
 H       -11.0085340078      -10.9423015759       -3.9829264222
 H       -10.0836794694      -10.0166771933       -5.2600058509
 H       -11.6749339425      -10.3103304850       -5.4290835628
 H       -10.2399854402       -7.3138782875       -2.7217876054
 H        -9.1604621797       -8.6701379244       -3.3504054155
 H       -10.1434304705       -9.0502681181       -2.1925515594
 H       -10.9676902234       -3.8628840207       -8.6354935168
 H       -12.4043049890       -5.1020375072       -8.8267328420
 H       -11.5893347002       -4.4529198929      -10.1634551259
 H       -11.3846421662       -7.2843129126      -10.1527672901
 H       -11.6255581254       -7.3682086076       -8.4116766746
 H       -10.1321053778       -7.8573500715       -9.2790816622
 H        -2.6682762653       -7.1728857458       -9.4245698308
 H        -3.6056341064       -5.8371666987       -8.8306621476
 H        -3.4705217054       -6.1621423947      -10.5937449791
 H        -3.7174464442       -9.4053288396       -9.6911138472
 H        -4.2780328464       -8.8211887495      -11.2157020994
 H        -5.4073828600       -9.5314638357       -9.9894901145
 H        -0.0522153530       -6.4973310718       -4.5513839518
 H        -0.2550172294       -6.4589263586       -6.2204126950
 H         0.0194854437       -7.9896114383       -5.3768579920
 H        -1.9301882877       -7.3107527990       -2.8471397162
 H        -1.7284903516       -8.8870190166       -3.6187910722
 H        -3.2415515505       -8.1829504478       -3.5884308144
 H        -4.7314372205       -1.3423280514       -4.2925639510
 H        -5.5931015946       -0.0672237079       -5.2030454761
 H        -3.9009348625       -0.5282451547       -5.6874438786
 H        -6.8763589563       -3.7117951843       -5.7579380317
 H        -7.5103355816       -2.2652599081       -6.5949543329
 H        -7.0747806308       -2.1456196139       -4.8475684440
 H        -5.1025747111       -2.0097260529      -12.2849984360
 H        -4.2348427688       -1.3423311983      -13.6858644536
 H        -5.5525156105       -0.4197679494      -12.9311822263
 H        -2.5434486466       -2.3056277051      -11.4404667877
 H        -1.4967812241       -0.9180666060      -11.4980211190
 H        -2.0840994647       -1.6675231070      -12.9582478065
 H         1.5166726688        1.8769346865      -10.8201091118
 H         0.4835883040        3.0180647450       -9.9403268180
 H         2.1788966154        3.2054550383       -9.7685009227
 H         0.1384813453        5.5116797561      -10.6934899661
 H         1.1020200795        6.0834106498      -12.0899438749
 H         1.9698465124        5.4766424591      -10.5742315758
 H         7.5904983147       -0.4480793769      -14.3285574181
 H         7.0436242369       -0.9492355772      -12.8151505362
 H         8.6538378886       -0.3454800226      -12.9329587004
 H         8.4775120024        2.1024748742      -11.5434058840
 H         7.4181526187        0.9651842525      -10.8728126141
 H         6.7488521938        2.5872090941      -11.1714416730
 H         9.2703895273        6.0495998813      -17.1829548647
 H         8.1594154833        7.4941138027      -17.4634743904
 H         7.9989250287        6.0829612640      -18.4849258695
 H         6.2447912443        6.1256245098      -14.6149445916
 H         7.1241484808        7.6723563026      -15.0571454207
 H         8.0536975657        6.3204918552      -14.6705475825
 H         1.4445543535        2.8859612773      -18.5273950508
 H         1.3942022179        3.1519633833      -16.6804693970
 H         2.7315089845        3.5697901235      -17.6993485557
 H         2.0905526744        5.0892441166      -19.8207319584
 H         0.6995298329        6.0789384716      -19.7604175801
 H         0.6937587184        4.3128103731      -19.9674522361
 H        -2.7705068670        6.4589631502      -13.7318978760
 H        -4.1018208797        6.5519104259      -14.7138814611
 H        -3.8861702214        7.6892679997      -13.4408588119
 H        -2.6940844870        9.7896387797      -16.4798702583
 H        -4.0321506278        9.7195254444      -15.1495167842
 H        -4.0323243757        8.5845460899      -16.4958314754
 Na        0.3728187245        5.8658758614      -14.4802068098
 Na       -6.3204215840       -4.6968245759       -8.1353882600
