232

 C        -1.0893430506       10.0423473225      -14.5026866324
 C        -1.2129336972        8.6069752762      -14.4344968285
 O        -0.4810201783        7.7906895240      -13.8505768248
 C        -2.5401792344        8.0133714265      -15.1888579941
 C        -1.8260625935        7.2686372158      -16.2975549278
 O        -0.6250198412        7.3774890717      -16.4688034153
 C        -2.5754874404        6.2410600108      -17.1006478347
 C        -1.6795994087        5.5071015581      -18.0969533382
 C        -0.4619374064        5.0077773212      -17.3875750320
 O        -0.6840823123        4.4888492408      -16.2809232382
 C         0.9800748783        5.0213524702      -17.9428707296
 C         2.0166617293        6.0784556673      -17.2202697056
 O         1.8467388342        6.5295821287      -16.1248019138
 C         3.3050030945        6.4901495015      -17.9775554747
 C         4.4071272953        6.2409949938      -16.9092830727
 C         5.8485635747        6.7287610323      -17.2146966526
 O         6.0832092401        7.6811098191      -17.8902456465
 C         7.1398207752        5.9707794335      -16.5691046894
 C         7.0549071434        4.3377740176      -16.5044870225
 O         5.9586749042        3.8270209832      -16.4912386057
 C         8.2494589145        3.4046098597      -16.1961662113
 C         7.7707249745        2.1457435810      -15.5226245970
 C         7.8512603601        2.3852906623      -13.9600524174
 O         8.4851890831        3.3002459382      -13.4982228075
 C         7.1021763659        1.2895159269      -13.0469449883
 C         5.5730065343        1.3278454325      -13.3214979956
 O         5.0321268513        0.2675707004      -13.4880952690
 C         4.7340032579        2.5618806881      -13.3818681002
 C         3.4921730445        2.5162629697      -12.5469392964
 C         2.5750575076        3.7284007478      -12.8011232903
 O         2.6533399177        4.5239786671      -13.6706117622
 C         1.2368131679        3.7311861866      -11.7809844826
 C         0.0145132761        3.3413917720      -12.6257719063
 O        -0.3389939987        3.8629143417      -13.6777384521
 C        -0.9292568220        2.2261490293      -11.9171064147
 C        -2.0661964778        1.7250544528      -12.9617078510
 C        -3.3253169341        1.0922611935      -12.2096006059
 O        -4.3171774900        1.7624215839      -12.1030741471
 C        -3.4802713443       -0.4956269018      -11.7835117068
 C        -3.8829649468       -0.4890365869      -10.2136329957
 O        -3.1894401562       -1.1678697474       -9.4708936017
 C        -5.1153981905        0.1281697165       -9.6878720004
 C        -5.3528814873       -0.1235712241       -8.2111824781
 C        -5.2492183260       -1.6247553282       -7.8686713494
 O        -5.3696511997       -2.5467766416       -8.6599364998
 C        -5.3616968179       -2.0702402021       -6.2612057414
 C        -4.4185880661       -3.3257523244       -6.1172591084
 O        -4.7552538394       -4.3303988827       -6.6967602829
 C        -3.0547017981       -3.2243623921       -5.4668563291
 C        -2.1989526399       -4.5316475503       -5.6215415247
 C        -2.7733611413       -5.7765170319       -4.9711349845
 O        -3.8455983057       -5.7304279797       -4.4111386844
 C        -2.0935509084       -7.1742952413       -5.0577295558
 C        -2.7836600045       -8.0639642751       -6.1720739789
 O        -2.2849312307       -8.3451061888       -7.2443117153
 C        -4.1208373343       -8.7790936685       -5.8028151710
 C        -4.8086807085       -9.0570992437       -7.0990040173
 C        -5.1891870121       -7.7481696015       -7.8658302264
 O        -5.7786111837       -6.8634460716       -7.3214001731
 C        -4.8488806251       -7.5956997430       -9.3937264618
 C        -5.9865407566       -6.6841515019      -10.0046463595
 O        -5.7380928095       -5.5336694832      -10.2462705823
 C        -7.3788812360       -7.2208663886      -10.5176322228
 C        -8.4293891916       -6.1265583655      -10.9183656437
 C        -9.0039011447       -5.3561544949       -9.6927461963
 O        -8.3494442598       -4.4733530139       -9.2478563462
 C       -10.2965809607       -5.7306889770       -8.9300521357
 C        -9.7872249035       -5.6750303096       -7.3914258693
 O        -8.6083290642       -5.7613110766       -7.1757913256
 C       -10.8742795039       -5.4793820861       -6.4712311494
 C       -10.8176471510       -6.2503617853       -5.1115621375
 C       -11.5420443771       -7.5986892545       -5.1543629602
 O       -12.2094582180       -7.9006065255       -6.1389096708
 C       -11.2574376870       -8.6476659510       -3.9631919349
 C       -12.5260150257       -8.5097991896       -2.9845120876
 O       -12.5698288597       -7.5542024041       -2.2216815255
 C       -13.7042326878       -9.5680309450       -3.0511392711
 C       -14.2976984260      -10.1151218464       -1.7382501751
 C       -13.4854344458      -11.3471444987       -1.2197417032
 O       -13.0378583486      -12.1374733665       -1.9481796313
 C       -13.3138431219      -11.6205603275        0.3287040243
 C       -11.8259973148      -11.3294950356        0.6374963554
 O       -10.9897059971      -12.1436289832        0.8946396371
 C       -11.4769155120       -9.8522464992        0.7873566272
 C       -14.3400092258      -10.8922523866        1.2204684574
 C       -13.5476522891      -13.2597658050        0.4556735519
 C       -11.1979903053      -10.0476883605       -4.5184152061
 C        -9.9824797398       -8.2778882692       -3.1806444795
 C       -11.5786388548       -4.6729777587       -9.1319837867
 C       -10.6772632952       -7.1972943628       -9.2544945701
 C        -3.5595108918       -6.7123588834       -9.6179139570
 C        -4.6254487607       -8.8967456208      -10.1257274186
 C        -0.5424614881       -7.0872843712       -5.1923146493
 C        -2.2613471899       -7.8706167544       -3.6232324665
 C        -4.8906681101       -0.9524298596       -5.3253747131
 C        -6.8979568604       -2.4094096380       -5.9316987367
 C        -4.7215458271       -0.9658713786      -12.6361626211
 C        -2.2977771645       -1.3790158093      -12.0411476013
 C         1.3266696007        2.8267947087      -10.4868538076
 C         1.1108100887        5.2448138092      -11.2559887982
 C         7.6221718751       -0.0426442115      -13.4797126221
 C         7.3573852012        1.5279002777      -11.5972240443
 C         8.4127229349        6.4046926360      -17.4412827660
 C         7.2200811140        6.4541596237      -15.1305222048
 C         1.4783970639        3.5865976312      -17.5592853020
 C         1.0761033675        5.3695195269      -19.5423158308
 C        -3.2445205359        6.9856864629      -14.2449242695
 C        -3.5116361710        8.9875285006      -15.8903883093
 H        -0.2529865626       10.3962846784      -13.8708820142
 H        -1.9363991637       10.6518234796      -14.1367735620
 H        -0.9893543444       10.3439683282      -15.5882902009
 H        -3.3931355153        6.6755309024      -17.6656657870
 H        -3.0464582529        5.5740372424      -16.2775922478
 H        -1.4582738191        6.0580814235      -18.9998655661
 H        -2.2666161277        4.6579841202      -18.3832614499
 H         3.1572012911        7.4693222074      -18.3461168623
 H         3.4359867220        5.7672834869      -18.7470121714
 H         4.5060084271        5.1768050643      -16.7304288351
 H         3.9648685125        6.5901172571      -15.9427622501
 H         9.0343878685        3.8525784740      -15.6033864706
 H         8.7295139728        3.1542492440      -17.1531652748
 H         8.4827689576        1.3273752603      -15.8743550336
 H         6.7337601892        1.9438775740      -15.7870716637
 H         4.3327701408        2.5008579483      -14.4546972202
 H         5.3999296692        3.3761461438      -13.1436671671
 H         3.7305058640        2.5767401056      -11.4635743087
 H         2.8610035633        1.6270901317      -12.7449663645
 H        -1.3542852936        2.6983733695      -10.9975033134
 H        -0.2590777697        1.4509017336      -11.7006522091
 H        -1.8209308950        1.1178794787      -13.8042875398
 H        -2.3522890457        2.6881926736      -13.5438475776
 H        -5.9939565851       -0.2730806480      -10.2973188447
 H        -5.1750843958        1.1859318071       -9.9733611553
 H        -6.2374043485        0.1967022729       -7.7488379590
 H        -4.5709536225        0.3104643097       -7.7297337432
 H        -3.1514877521       -3.1452451141       -4.4129817857
 H        -2.4516212171       -2.3223856188       -5.6675281265
 H        -1.1895978924       -4.3783755336       -5.2737369500
 H        -1.9541329514       -4.8372701427       -6.6990257916
 H        -4.8822272969       -8.0943498313       -5.2141344450
 H        -4.0794916922       -9.6745848446       -5.0827052391
 H        -5.7600437269       -9.3819654499       -6.9246719754
 H        -4.2741612964       -9.7769357073       -7.7495492898
 H        -7.8071194642       -7.8947707483       -9.7961579594
 H        -7.1607216912       -7.7825908180      -11.4499091666
 H        -9.2678313811       -6.5086303892      -11.4418378562
 H        -8.0475821876       -5.3714170059      -11.5331602335
 H       -11.8304713177       -5.7229038524       -6.9056191732
 H       -10.9482297613       -4.3996615304       -6.3009614701
 H       -11.1870552373       -5.5580738046       -4.2681903881
 H        -9.7539673986       -6.5019454655       -4.8648069012
 H       -13.2210837542      -10.3596309078       -3.6750340651
 H       -14.5220511613       -9.2969535286       -3.7659403739
 H       -15.3022304626      -10.6000069276       -1.9624795858
 H       -14.6132880191       -9.3229115107       -1.0709437930
 H       -10.4628796835       -9.7073779400        0.5479252965
 H       -11.6672199553       -9.4254696165        1.7903583280
 H       -11.9759397744       -9.2301653176        0.0743947031
 H       -14.4290293361       -9.8483096759        0.9448653345
 H       -14.0008377444      -10.8095388107        2.2870893544
 H       -15.4309405554      -11.2876111034        1.2092443693
 H       -13.2327765593      -13.5619494705        1.4443635816
 H       -12.9488112995      -13.9061869227       -0.2372595471
 H       -14.6170682271      -13.4871659375        0.2155217571
 H       -11.3938310730      -10.8138112186       -3.7793422679
 H       -10.3568071103      -10.3122471673       -5.0495089871
 H       -12.0157788971      -10.2062791592       -5.2635732753
 H       -10.0126729358       -7.2073537277       -2.7859607814
 H        -9.1473243250       -8.6625492800       -3.7753276615
 H        -9.8205804035       -8.9905956301       -2.3960154432
 H       -11.1063449650       -3.7209862840       -8.9435151291
 H       -12.4111935932       -4.9983887046       -8.5480741349
 H       -11.9995752448       -4.7489318265      -10.1486879522
 H       -11.0773133893       -7.4233838432      -10.2055723854
 H       -11.4590551257       -7.4999551988       -8.5514922017
 H        -9.9190658788       -7.9102644253       -9.1231495189
 H        -2.5810905515       -7.1365352327       -9.2544793152
 H        -3.6953009040       -5.7303519724       -9.2367532550
 H        -3.4486516806       -6.7096350654      -10.6775896839
 H        -3.8217609370       -9.3539170103       -9.5107829336
 H        -4.3181055440       -8.7442044710      -11.0778789284
 H        -5.4521947454       -9.6538063110      -10.1127632049
 H        -0.0192168414       -6.4023728579       -4.5058654710
 H        -0.2141863437       -6.6402413310       -6.1478545656
 H         0.0501618837       -8.0655231431       -5.0599378789
 H        -1.8213655400       -7.2624018654       -2.8584806970
 H        -1.7056346466       -8.7886692221       -3.6833551374
 H        -3.2595998793       -8.2518098041       -3.2943946913
 H        -4.7729468643       -1.1687127879       -4.2636572573
 H        -5.5836149285       -0.0894282503       -5.3622247985
 H        -3.9189794652       -0.6021344965       -5.6945574386
 H        -7.0199756717       -3.4485860713       -6.1550061860
 H        -7.5196361450       -1.8390743436       -6.6266445930
 H        -7.2002701106       -2.2772394110       -4.8694544224
 H        -5.2987638888       -1.7082867285      -11.9679738577
 H        -4.3930806242       -1.5208705193      -13.4890186535
 H        -5.4483448484       -0.2351520404      -13.0224339850
 H        -2.6614054977       -2.3752921228      -12.1802717427
 H        -1.5864206007       -1.3872667477      -11.2425645398
 H        -1.7287852387       -1.2318158333      -12.9581172112
 H         1.5380348956        1.7977057941      -10.7020285306
 H         0.3901522296        2.8898693346       -9.7334290533
 H         2.1933292778        3.2185731816       -9.8901752190
 H         0.3500191364        5.3151228662      -10.5353455770
 H         0.7934658512        5.8440777411      -12.1316034126
 H         2.1449416347        5.4766033531      -10.9191884124
 H         7.5455537764       -0.1380159375      -14.5129926965
 H         6.9160843146       -0.8333372577      -13.1956832435
 H         8.6184850151       -0.4821930737      -13.1365037109
 H         8.3906652606        1.7860312084      -11.4489660587
 H         7.0613484712        0.7345242590      -10.8896299291
 H         6.7300905030        2.4185441357      -11.3731919911
 H         9.2636891252        6.4039600599      -16.8398308379
 H         8.0835453978        7.4462273347      -17.6872246535
 H         8.5136353291        5.7955692602      -18.2873888503
 H         6.2333657742        6.3736630413      -14.7036072872
 H         7.5365150276        7.5412839380      -15.0671276520
 H         8.0649433764        6.0074349373      -14.5113473387
 H         1.3240074521        2.8381072138      -18.3347440923
 H         1.0183455550        3.3626617485      -16.6730877696
 H         2.5926993413        3.5006772244      -17.3660463575
 H         1.8892238722        4.7726892481      -19.9224977388
 H         1.2284377134        6.3384110810      -19.8949370356
 H         0.2707910151        4.8313657272      -20.1132812764
 H        -2.7627956175        6.1698869631      -13.7072721105
 H        -4.0695537953        6.3935588930      -14.7029987976
 H        -3.7546228556        7.5011882246      -13.4109813924
 H        -2.8375021524        9.6011359099      -16.4177116993
 H        -4.0970950712        9.4552870646      -15.0542114176
 H        -4.2147916917        8.4302699997      -16.5342029930
 Na        0.4446695596        5.8951971442      -14.5044330665
 Na       -6.3073890676       -4.6366703159       -8.2085182128
