232

 C        -1.3853934915       10.0084794547      -14.4975629446
 C        -1.4701363064        8.4904344069      -14.3706804001
 O        -0.5409963597        7.8415339621      -13.8721642033
 C        -2.5503344044        7.6430525762      -15.0199287957
 C        -1.8984863406        7.3889136565      -16.4247344132
 O        -0.7832548736        7.7861123296      -16.7035109896
 C        -2.5294698602        6.4360368085      -17.4845278785
 C        -1.4751331038        5.7245673497      -18.3956863056
 C        -0.1653886433        5.2860753689      -17.7243159114
 O        -0.3132474161        4.9120459647      -16.5661238126
 C         1.2967755338        5.2320390209      -18.2217131321
 C         2.2631809883        6.0596576309      -17.1815030196
 O         1.8123462000        6.5308379293      -16.1832877998
 C         3.6801870423        6.2365058038      -17.6993019411
 C         4.5304722742        6.8349294663      -16.5550264528
 C         6.0123347662        6.8733921555      -16.9698759170
 O         6.2932416512        7.4931580050      -17.9657250291
 C         7.1797619924        5.9579193123      -16.3753344125
 C         6.9162514808        4.4162211726      -16.3858864046
 O         5.8296858074        3.9417297484      -16.5233584348
 C         8.1283245618        3.4893224119      -16.2945630006
 C         8.0615170505        2.1512379554      -15.6288786691
 C         7.7642747990        2.2635918481      -14.0976765507
 O         8.0505859034        3.2430073625      -13.4819400741
 C         7.0358915036        1.1072266395      -13.3152266042
 C         5.4847404243        1.2913317034      -13.6849394075
 O         4.9237710819        0.2892215944      -14.1025847355
 C         4.8188640180        2.6159356497      -13.4900472944
 C         3.4973074316        2.3867119940      -12.7293688136
 C         2.3292666801        3.3921507058      -13.0403013687
 O         2.2803508878        3.9951525117      -14.0488347559
 C         1.1885541283        3.5134233283      -11.8423776248
 C        -0.1014293390        3.0893683978      -12.5846714823
 O        -0.6307201509        3.8449606292      -13.3633371481
 C        -0.7528037559        1.7355067054      -12.0528721716
 C        -2.0776062029        1.6936425695      -12.9593837042
 C        -3.2278946425        1.1882064926      -12.0381325162
 O        -3.8559656220        2.0855638201      -11.5301299104
 C        -3.5082067306       -0.3522986277      -11.7793988056
 C        -3.6579885233       -0.4818079720      -10.1807163512
 O        -2.6431208045       -0.8683313454       -9.6154127819
 C        -4.8343632975        0.2740301136       -9.4721398399
 C        -4.8978069695       -0.0630983186       -7.9769644127
 C        -5.4437046677       -1.4253987343       -7.7306212223
 O        -6.0250732664       -2.1396487813       -8.5881983618
 C        -5.3243826997       -1.9375374216       -6.1965744333
 C        -4.4280286102       -3.2484363443       -6.2807549214
 O        -4.7451368591       -4.1834128880       -7.0077603302
 C        -3.1633647468       -3.1656347128       -5.4785560745
 C        -2.3731854989       -4.4680765454       -5.4606512723
 C        -2.9190755366       -5.6498402200       -4.5771885821
 O        -3.8862279706       -5.4912030256       -3.8493153750
 C        -2.1006910216       -7.0318804652       -4.6181159835
 C        -2.7713691671       -7.7660988980       -5.8639547717
 O        -2.2499605560       -8.0539219014       -6.9254195346
 C        -4.3476729772       -8.1804451064       -5.7187582752
 C        -4.7791759396       -8.8496307059       -7.0746091239
 C        -5.4124246498       -7.7797569784       -7.9806185403
 O        -6.1089849959       -6.8600733148       -7.5239355804
 C        -5.1054171545       -7.8138702794       -9.4968146708
 C        -6.0555435098       -6.9619154570      -10.3149791625
 O        -5.7175489175       -5.7836103184      -10.5007711093
 C        -7.4324512574       -7.5695556740      -10.8248582347
 C        -8.4827516777       -6.4881531630      -11.2349102072
 C        -8.8150743339       -5.5283144012      -10.0545845618
 O        -8.3348008160       -4.4030031284      -10.0826573379
 C        -9.9930577030       -5.8726412410       -9.0860244433
 C        -9.7686143510       -5.5878729606       -7.5667974382
 O        -8.6418714021       -5.3088210490       -7.1750400872
 C       -10.9156093431       -5.6275986884       -6.6004936249
 C       -10.7840392007       -6.3915789899       -5.2026672751
 C       -11.5355629893       -7.7088095988       -5.0857063668
 O       -12.4014237866       -7.9161761568       -5.8878391117
 C       -11.3165980912       -8.7047545363       -3.8918472139
 C       -12.3499969116       -8.4374357276       -2.7069335530
 O       -12.0878260611       -7.6991934712       -1.8119303426
 C       -13.7170984147       -9.1892629986       -2.7472377329
 C       -14.0724491441       -9.6957306508       -1.3478644124
 C       -13.4710209680      -11.1199291723       -1.0645491708
 O       -13.3278758453      -11.8522226881       -1.9909865950
 C       -13.4158627279      -11.7415251112        0.4350171089
 C       -11.8718096372      -11.4091936318        0.9009153528
 O       -11.0073713956      -12.2470063790        1.0810409051
 C       -11.6002572268       -9.8722007266        1.1993449156
 C       -14.3682868559      -11.0191975455        1.4645115334
 C       -13.6465383932      -13.1660288741        0.3323391118
 C       -11.3105805628      -10.1410156237       -4.5954524811
 C        -9.9063693356       -8.5592554359       -3.1589059257
 C       -11.1745300831       -4.9361557595       -9.6338004383
 C       -10.3500802585       -7.3922263684       -9.0655067662
 C        -3.6387694552       -7.2672979502       -9.7287668098
 C        -5.1879907157       -9.2963803265       -9.9541888629
 C        -0.5850868215       -6.8332242252       -4.8635192814
 C        -2.3273318231       -7.8479584567       -3.4219753942
 C        -4.7392602001       -0.8619779139       -5.3560813075
 C        -6.6848238443       -2.3740340484       -5.5841642241
 C        -4.7199496833       -0.8767802598      -12.5659719644
 C        -2.3100324297       -1.2154537302      -12.2893008972
 C         1.5611704904        2.6107420383      -10.7048477176
 C         1.0403613015        4.8980596951      -11.2384799843
 C         7.5032074219       -0.2209181163      -13.8710837851
 C         7.1783496910        1.2944645465      -11.7220901438
 C         8.4499008963        6.3874476073      -17.1973910689
 C         7.3112756249        6.4661431393      -14.8630371084
 C         1.6948208315        3.7424093614      -17.9305814774
 C         1.5075146258        5.5902556617      -19.6497553048
 C        -2.7729829019        6.4413419606      -14.1548271597
 C        -3.9676973005        8.4935481018      -15.0956952007
 H        -0.5309826192       10.4646500528      -13.9980848109
 H        -2.2037634126       10.5714683597      -14.1219765268
 H        -1.3543729019       10.2190540941      -15.5646538657
 H        -3.2234577232        7.0449556504      -18.0645211986
 H        -3.2719598157        5.7364323605      -16.9533480794
 H        -1.2294233704        6.2617784514      -19.3110287537
 H        -1.8893507581        4.7684391019      -18.7078855676
 H         3.6559016065        6.9597547988      -18.4822982636
 H         4.0341378928        5.2553183750      -17.9729372614
 H         4.2331941698        6.4765752562      -15.5960584537
 H         4.3576712282        7.9122830015      -16.4501424025
 H         9.0304293411        4.0412903227      -15.8958730276
 H         8.4882444005        3.2914964635      -17.3508418391
 H         9.0420571063        1.6159604396      -15.7237621249
 H         7.3333851782        1.5886437475      -16.1763716151
 H         4.6941365962        2.9691460936      -14.5544229918
 H         5.5062465250        3.3411349168      -13.0502478379
 H         3.6862840455        2.3186692981      -11.6099770228
 H         3.0302010528        1.4798486305      -13.0963289704
 H        -0.7358939504        1.7403281489      -10.9160891777
 H        -0.1735498960        0.8403665632      -12.3161842829
 H        -1.8776835059        1.0940663741      -13.8466050481
 H        -2.4260130465        2.7888409125      -13.1612797713
 H        -5.8407244347        0.0205944200       -9.9290444459
 H        -4.7588815477        1.3358130655       -9.6204947571
 H        -5.3443391991        0.7174979565       -7.3336334912
 H        -3.9806073865       -0.1746358290       -7.5846163057
 H        -3.4703739926       -2.7434802853       -4.5696155996
 H        -2.4638423766       -2.4155220420       -5.8901420965
 H        -1.3691769991       -4.4429273839       -5.1950051242
 H        -2.2423600038       -4.7644755759       -6.5177699682
 H        -5.0205550043       -7.3536393602       -5.4092579811
 H        -4.5840870773       -8.8698081311       -4.8522293228
 H        -5.4204724108       -9.6512897329       -6.8946426244
 H        -3.8663769952       -9.1699008794       -7.5791698188
 H        -7.8168870473       -8.1615521306      -10.0166187365
 H        -7.3244285046       -8.2223235890      -11.6661331703
 H        -9.4087266085       -6.9824106995      -11.5578617646
 H        -8.3601888151       -5.9445597721      -12.1227084265
 H       -11.8086248533       -5.9920790195       -7.0983627038
 H       -11.1942930166       -4.5771056165       -6.4055029344
 H       -11.2275399743       -5.8044738778       -4.3606313508
 H        -9.7155666062       -6.5132416582       -4.9980095645
 H       -13.7087009710      -10.0949830650       -3.3952414210
 H       -14.4546241524       -8.4008552102       -3.1703806910
 H       -15.1862867195       -9.7701093257       -1.2046061031
 H       -13.7059716359       -9.0978585888       -0.5200658389
 H       -11.7827422619       -9.6689502020        2.2306433673
 H       -12.2624831087       -9.1610486555        0.7096744749
 H       -10.5628345332       -9.6108498852        1.0131267105
 H       -13.9678227711      -10.0020208667        1.8792392776
 H       -14.5652672275      -11.7391936591        2.2688325609
 H       -15.3897977699      -10.8853407707        0.9922657625
 H       -13.3369515560      -13.7776375875        1.1684899612
 H       -12.9347800033      -13.5171137652       -0.4668648889
 H       -14.6603149291      -13.2369961690        0.0445885324
 H       -11.2501667327      -10.9744471643       -3.9210506829
 H       -10.4142804131      -10.2795679043       -5.1410660540
 H       -12.2009138285      -10.3975059770       -5.2336102787
 H        -9.7699760140       -7.5121101174       -2.8074803484
 H        -9.1320620223       -8.8798582589       -3.8713516710
 H        -9.9958117561       -9.0641564979       -2.2358001605
 H       -11.0197648829       -3.8685044113       -9.4378330541
 H       -12.0798770946       -5.3282514855       -9.2223679556
 H       -11.1252000069       -5.2008655243      -10.7050023661
 H       -10.7180659772       -7.8162171404       -9.9559098002
 H       -11.1658815398       -7.6565378801       -8.3547392194
 H        -9.6318689083       -8.0168184664       -8.5662954832
 H        -2.7866357414       -7.8741348354       -9.3512234964
 H        -3.6458305809       -6.3393621267       -9.1896411883
 H        -3.3941022772       -7.1311684087      -10.7560139070
 H        -4.3420090574       -9.7562081971       -9.3846730706
 H        -5.0837045284       -9.4087994774      -10.9952882142
 H        -6.0975110778       -9.8106686150       -9.6764605066
 H        -0.1236768528       -6.2882474093       -4.0681338370
 H        -0.3795154161       -6.2122634187       -5.7499598663
 H         0.0354098312       -7.7200696130       -4.9741206114
 H        -1.6091245723       -7.5076692223       -2.7254779555
 H        -2.1780417991       -8.8851679042       -3.6028362772
 H        -3.3463356370       -7.8245687706       -2.9954385261
 H        -4.6685195346       -1.3398662339       -4.3592714119
 H        -5.4501404974       -0.0020640852       -5.2139647741
 H        -3.6702232563       -0.5972301973       -5.6136167701
 H        -7.3647219379       -2.8409062208       -6.2548541703
 H        -7.0779853634       -1.4801221025       -5.0388322148
 H        -6.4979210447       -3.1968892737       -4.8690089783
 H        -4.6932311757       -1.9647672961      -12.8045767382
 H        -4.9294998181       -0.2951018918      -13.4293006504
 H        -5.6175531778       -0.6394294621      -11.9695438727
 H        -1.6845581632       -0.7669341150      -13.0379599911
 H        -2.5788498089       -2.2270890673      -12.5759918207
 H        -1.6268560046       -1.4299207085      -11.4583236939
 H         1.8050793675        1.6057161095      -10.9712248067
 H         0.7147300968        2.6399619279       -9.9850494415
 H         2.4736500844        2.9406671531      -10.2090280654
 H         0.2031442209        4.9260490083      -10.5397881483
 H         0.9251507061        5.6318434167      -12.0728731930
 H         2.0346632721        5.0306490815      -10.8063389089
 H         7.1309038248       -0.4455095125      -14.8364754563
 H         7.2575582218       -1.0530776447      -13.2364657661
 H         8.6003637175       -0.4041318593      -14.0228601916
 H         8.2088535773        1.1061249626      -11.5064802804
 H         6.5277317677        0.6147198102      -11.0768901861
 H         7.1102187804        2.2724635015      -11.4366190827
 H         9.2908272526        5.8142656895      -16.8618768847
 H         8.5595666098        7.4913995017      -17.0495493622
 H         8.2380775747        6.1294013263      -18.2488444535
 H         6.4973391558        6.1819764777      -14.2059975924
 H         7.4581131698        7.5227856180      -14.7005780589
 H         8.2878364354        5.9726683896      -14.3891689097
 H         0.8814223595        3.0512568323      -17.9982607790
 H         2.0959494322        3.6084928187      -16.9660902147
 H         2.4522581751        3.3659408976      -18.7059087898
 H         2.4643365135        6.0381560322      -19.8352971471
 H         0.8163182763        6.3334753736      -19.9217220057
 H         1.3309547252        4.7444269474      -20.3250200610
 H        -1.9149933451        5.8621293402      -13.8531959829
 H        -3.4116243723        5.6342957297      -14.5486534724
 H        -3.1944714519        6.7013581220      -13.1855545045
 H        -3.7750319689        9.3476990890      -15.7353081351
 H        -4.2207427574        8.7848799005      -14.0486800944
 H        -4.7822920732        7.8590708316      -15.4724202622
 Na        0.3036423437        5.6152813232      -14.5927615544
 Na       -6.7358763489       -4.5575780950       -8.3793099830
