232

 C        -1.6815719248        9.6749330400      -13.8748188917
 C        -1.3868657208        8.2154972095      -14.1739923479
 O        -0.3544073298        7.7429581653      -13.7226937396
 C        -2.3839697165        7.3792914016      -15.0687475225
 C        -1.8592828749        7.4415235754      -16.5509843484
 O        -1.1979328154        8.3961886496      -16.9117304448
 C        -2.3277334001        6.4000937635      -17.6169013886
 C        -1.1135460515        6.3148609865      -18.5013924071
 C        -0.0108830948        5.3405136959      -17.6964910555
 O        -0.4178066297        4.6873073360      -16.7747618190
 C         1.4958168968        5.1697586271      -18.2533148082
 C         2.3518534758        5.8927400718      -17.0817337912
 O         1.9439089493        6.3975386117      -16.0622298321
 C         3.7986986700        6.0861913995      -17.4922509449
 C         4.6798873838        6.7377760129      -16.4612550636
 C         6.1705800762        6.7735429648      -17.0651839928
 O         6.3612011085        7.1753877017      -18.1799261820
 C         7.3421913930        6.1972310988      -16.2592171377
 C         7.0444770235        4.5813275219      -16.4123759777
 O         5.9179232583        4.1762845721      -16.2463369534
 C         8.2526771151        3.6983175913      -16.3540810763
 C         7.7982499287        2.2717218515      -15.8932853765
 C         7.4908293947        2.2968922344      -14.3147890373
 O         7.6262976982        3.2973675671      -13.6634148629
 C         6.8688872671        1.0784087989      -13.6373855268
 C         5.4037039092        1.1649425740      -13.9954236894
 O         4.8256278667        0.3131380376      -14.6371411278
 C         4.6407487150        2.4663490563      -13.7307231425
 C         3.4409377742        2.2210813828      -12.8839684949
 C         2.3311678489        3.2674860559      -13.0347016678
 O         2.2154762101        4.0404895789      -13.9048290256
 C         1.2731789453        3.4251625576      -11.7826786197
 C        -0.0695506745        3.2472573781      -12.5430419317
 O        -0.6179360998        4.1139523250      -13.2270822056
 C        -0.7289521343        1.7720856349      -12.5828332756
 C        -2.0861064706        1.6123524336      -13.2446468154
 C        -3.0859635850        1.2479910756      -12.0724124938
 O        -3.7406409960        2.1476004106      -11.6995137303
 C        -3.4900940755       -0.3122792615      -11.6988294352
 C        -3.5355869117       -0.3945149892      -10.1551490211
 O        -2.4966402074       -0.6563916114       -9.5572604098
 C        -4.7900758744       -0.2676864014       -9.4262392139
 C        -4.8390598947       -0.3662345144       -7.9079375247
 C        -5.6406246905       -1.5141461163       -7.3937152719
 O        -6.5319302304       -2.0200871562       -8.1014258021
 C        -5.3951899371       -2.0150244596       -5.9400998763
 C        -4.4114620187       -3.1639767184       -6.1750592441
 O        -4.6658684128       -4.0842721537       -6.9604061103
 C        -3.1085465966       -3.1879571876       -5.3813675646
 C        -2.3262561397       -4.4700186532       -5.3964684461
 C        -2.8958707456       -5.4901718220       -4.3708343802
 O        -3.7941188540       -5.1650739671       -3.6260955871
 C        -2.1511116853       -7.0246134148       -4.3771381520
 C        -2.8344021970       -7.6467171909       -5.6808752241
 O        -2.1892587550       -7.7401555173       -6.7118834469
 C        -4.3959545679       -7.8640678320       -5.7930986374
 C        -4.9242881094       -8.5965209330       -7.0306963427
 C        -5.5208406686       -7.6926173845       -8.0946181703
 O        -6.2011123916       -6.7218193260       -7.8149746913
 C        -5.2305216468       -8.0997106557       -9.6533895997
 C        -6.0807110532       -7.1997836870      -10.4024739100
 O        -5.9173555943       -5.9679394305      -10.2754581190
 C        -7.4553252195       -7.7287837179      -10.9519740017
 C        -8.4624631137       -6.5825692415      -11.2772303735
 C        -8.9407996704       -5.6641038045      -10.1488744026
 O        -8.5128077622       -4.5271891051      -10.0771025686
 C       -10.0596033447       -6.1039086776       -9.1291700670
 C        -9.9052019205       -5.5401857407       -7.6367691286
 O        -9.0320094825       -4.7192176308       -7.3569145274
 C       -10.9161537773       -5.7695447486       -6.5621484211
 C       -10.4312396904       -6.6895096316       -5.4292070973
 C       -11.4689394104       -7.7794264634       -5.0595969675
 O       -12.5186996035       -7.7583739116       -5.6505498055
 C       -11.1645065696       -8.7644875032       -3.8956270202
 C       -12.0447112553       -8.2816220219       -2.6161206293
 O       -11.6420969595       -7.4599918942       -1.8628404922
 C       -13.5261499373       -8.7953179986       -2.5103646842
 C       -13.9203171816       -9.4325958265       -1.1000690465
 C       -13.4779547947      -10.9143057039       -0.9862746189
 O       -13.0313343600      -11.5076437354       -1.8949612314
 C       -13.5343191125      -11.6078317220        0.4670117548
 C       -12.0963636165      -11.3704200683        0.9374300161
 O       -11.2207935210      -12.2305704096        0.9445311926
 C       -11.6296286649       -9.9417749156        1.3509826093
 C       -14.6298660094      -11.1016885576        1.4174392029
 C       -13.5948513627      -13.1016230879        0.2528778282
 C       -11.4592464525      -10.2758920953       -4.4022977927
 C        -9.6275352295       -8.6996348176       -3.4474610760
 C       -11.3925920359       -5.3786821091       -9.6797432424
 C       -10.3152912837       -7.6759339970       -9.1190983788
 C        -3.7268188961       -7.7310969122       -9.9563519313
 C        -5.4267292844       -9.6235756864       -9.9271281700
 C        -0.6822039966       -6.8996123948       -4.4619034380
 C        -2.5089994289       -7.6184144781       -3.0645974456
 C        -4.8629157093       -0.9644810862       -5.0401719111
 C        -6.7476257562       -2.6321666976       -5.4672808051
 C        -4.8777713153       -0.5378806751      -12.4064224857
 C        -2.5900337563       -1.3967224840      -12.2082350540
 C         1.3690605290        2.4980523914      -10.4929783123
 C         1.4771312912        4.8836386343      -11.3320802516
 C         7.5042721513       -0.2732651126      -14.1452531408
 C         7.0611807481        1.2624515542      -12.1011485493
 C         8.7669513378        6.5884859785      -16.9198353359
 C         7.1839262563        6.3988546123      -14.7105582666
 C         1.9887017664        3.6935793604      -18.3522270638
 C         1.5334040633        5.9860947712      -19.6343460205
 C        -2.6533905706        5.8736039149      -14.7089194999
 C        -3.6945847000        8.2283001832      -15.2777129856
 H        -0.9135825386       10.1623544761      -13.2496627743
 H        -2.5992067258        9.7515161638      -13.2770983462
 H        -1.8075653539       10.2506892175      -14.8021925269
 H        -3.2375550381        6.6916389665      -18.0619028951
 H        -2.6063083842        5.4775560108      -17.1061700980
 H        -0.6733880190        7.2668461616      -18.8535460223
 H        -1.3013070417        5.6331888453      -19.3636888009
 H         3.8313337339        6.7701541290      -18.3932820880
 H         4.1676831966        5.0361092031      -17.6679247324
 H         4.6745760499        6.0616947017      -15.6261645384
 H         4.3627507340        7.7098840522      -16.0125376693
 H         9.1356936504        4.0241009603      -15.8415992858
 H         8.6475926015        3.5497683062      -17.3768508627
 H         8.5926930104        1.6280181388      -16.2262220536
 H         6.9114583585        1.9218886828      -16.4298228793
 H         4.3185322270        2.9736420830      -14.6327684167
 H         5.2774065218        3.2264513428      -13.3392820462
 H         3.6014783711        2.1778235174      -11.8529121991
 H         2.9910999575        1.2692214375      -13.2461153987
 H        -0.6025275998        1.1165722344      -11.6413890113
 H         0.0453760304        1.2814461842      -13.1381818723
 H        -2.1218460164        0.7774220290      -13.8291581088
 H        -2.5046216474        2.5649164551      -13.6104586009
 H        -5.3544108600       -1.0957910056       -9.8623902723
 H        -5.3017370203        0.6406594859       -9.7248053336
 H        -5.1546792901        0.6377440315       -7.2897397852
 H        -3.7452496733       -0.4323056361       -7.5448776977
 H        -3.3725646043       -3.0271263769       -4.2873366792
 H        -2.4567521043       -2.3534224175       -5.6753620531
 H        -1.2829330916       -4.4023116230       -5.1307317787
 H        -2.2697610728       -5.0643750359       -6.3602198314
 H        -4.6837621596       -6.8747212646       -5.9670267507
 H        -4.8986471190       -8.0852119898       -4.9311262807
 H        -5.7700518019       -9.1881841459       -6.6814386119
 H        -4.0848536578       -9.2873554075       -7.4759828959
 H        -7.8792686578       -8.3665981261      -10.1998799978
 H        -7.4182080793       -8.3571303266      -11.9188352854
 H        -9.4370125974       -7.0316692129      -11.7983161604
 H        -8.1355994801       -5.8355507287      -12.0861480519
 H       -11.7807031278       -6.2751858151       -7.0589418049
 H       -11.2950239772       -4.8495087234       -6.0951331071
 H       -10.0544810826       -6.1010585997       -4.6130855248
 H        -9.6178042830       -7.2369987760       -5.8259000904
 H       -13.5735418191       -9.5611239954       -3.2859447081
 H       -14.1602537985       -7.9296922517       -2.6095078771
 H       -15.0171383840       -9.5151957775       -1.0523731834
 H       -13.5844668324       -8.7340584306       -0.3744507935
 H       -12.2494439547       -9.0648746142        1.1986622192
 H       -10.6163091870       -9.6695163280        0.8916639991
 H       -11.3796010371      -10.1079555039        2.3982321907
 H       -14.1072233633      -10.8229756833        2.2905928720
 H       -15.3284940099      -11.8176940540        1.6943615697
 H       -15.1313124095      -10.2445439040        1.0551947847
 H       -13.3017438692      -13.5998801478        1.1663258236
 H       -12.7943363159      -13.3337433891       -0.4763278250
 H       -14.6004354620      -13.4582460419        0.0206325104
 H       -11.6238755379      -11.0905088145       -3.6640960399
 H       -10.6267870422      -10.6776722593       -4.9098266215
 H       -12.2432189071      -10.3314571708       -5.2323448102
 H        -9.3171456775       -7.8801927856       -2.7665026061
 H        -9.0765752525       -8.5342444165       -4.3399249726
 H        -9.5774274476       -9.6139909697       -2.9144554173
 H       -11.1554291134       -4.3261316292       -9.7287300076
 H       -12.0796172172       -5.4368173907       -8.8635911661
 H       -11.6915729787       -5.7916109977      -10.6630638786
 H       -10.6561506027       -8.0696148225      -10.1016707342
 H       -11.0928663520       -8.0208627802       -8.3399173958
 H        -9.5153420045       -8.3430416652       -8.7796076787
 H        -3.0290710892       -8.1277303781       -9.1272299631
 H        -3.6433772688       -6.6663402513      -10.0119360791
 H        -3.3583260148       -8.1575541638      -10.8861762529
 H        -4.6299163706      -10.1457554158       -9.3597047263
 H        -5.2435441089       -9.8478318766      -10.9147818593
 H        -6.4951852231       -9.9366919464       -9.6715858445
 H        -0.1277140331       -6.2396195451       -3.8356803138
 H        -0.4657870977       -6.6523567828       -5.4710214794
 H        -0.1619364458       -7.8859721452       -4.4108859961
 H        -1.9400544559       -7.1800441448       -2.2482385673
 H        -2.1939388446       -8.6716129808       -3.0382952327
 H        -3.6383472015       -7.6282654182       -2.8885306228
 H        -4.7955522792       -1.2906193624       -4.0363331343
 H        -5.5912397376       -0.1903466488       -5.0981927724
 H        -3.9752928934       -0.5548243654       -5.4080067537
 H        -6.7775853783       -3.6087682351       -5.8761352696
 H        -7.5911775909       -2.0498489147       -5.7727830393
 H        -6.7877188995       -2.7906121009       -4.3712294652
 H        -5.3532921593       -1.4181791660      -11.8909440946
 H        -4.7930853395       -0.9034308767      -13.3871207034
 H        -5.5142449032        0.3339463856      -12.4445327833
 H        -1.5824155903       -1.3888755370      -11.7698298882
 H        -2.4431833988       -1.3540800178      -13.2909499668
 H        -3.0157729173       -2.3903619924      -11.9508147410
 H         1.4161063282        1.4999803590      -10.7217481857
 H         0.4727618370        2.6607339960       -9.7817005104
 H         2.2460553819        2.7677359073       -9.9345980938
 H         0.7480577887        5.1049352017      -10.6231869584
 H         1.4959399282        5.5066519585      -12.2356301773
 H         2.4544863852        4.9206143080      -10.8127637010
 H         7.9115239738       -0.2391078066      -15.0884556953
 H         6.9331072750       -1.1890337172      -14.0758572859
 H         8.4792733370       -0.5377014339      -13.6322971723
 H         8.0813726352        1.4466045809      -11.7813339495
 H         6.6461073907        0.3431658123      -11.6005732933
 H         6.5261979518        2.1114064018      -11.7076868461
 H         9.5487624576        6.0809954506      -16.4027060158
 H         8.9410214202        7.7097091483      -16.7385503468
 H         8.7577219816        6.4054191238      -17.9712874820
 H         6.2938436031        6.1092224013      -14.3264234611
 H         7.2556421044        7.4153015463      -14.4325710513
 H         7.8925069807        5.7959652895      -14.0713438988
 H         1.7878640222        3.1976401461      -19.3339244777
 H         1.5477209620        3.0419935868      -17.6867903558
 H         3.1099726031        3.6966523099      -18.1648677423
 H         1.5375525463        7.0525782892      -19.3807495418
 H         0.8305901254        5.6191572933      -20.3596543398
 H         2.5477291328        5.6810096543      -20.1157706073
 H        -1.9807782282        5.0659252891      -14.9541269723
 H        -3.5682821262        5.5076716210      -15.1436308751
 H        -2.8306747799        5.6967030914      -13.6695892202
 H        -3.3192180176        9.1277557072      -15.6767312482
 H        -4.2938045335        8.4744454932      -14.3638691894
 H        -4.2310425681        7.7614956389      -16.1082287710
 Na        0.4868457901        5.7709498929      -14.5147783567
 Na       -6.5551145613       -4.3995266007       -8.4248869297
