232

 C        -1.8795949027        9.3401285249      -13.3692216186
 C        -1.4527544345        8.0528366849      -14.1827599568
 O        -0.5511511384        7.3870360168      -13.7287331958
 C        -2.4550847571        7.5066040708      -15.1948265833
 C        -1.8886619352        7.7079719340      -16.7020715302
 O        -1.3420015032        8.7488594103      -16.9694451737
 C        -2.1082242815        6.6401579118      -17.7857677548
 C        -0.8644775994        6.2248784506      -18.5726506161
 C         0.0500733667        5.3597241215      -17.7161187061
 O        -0.2794154346        4.5732399040      -16.8199886210
 C         1.5619046049        5.3158283328      -18.3352829463
 C         2.5480201530        5.9028443437      -17.2084296566
 O         2.2196721023        6.2811260220      -16.0920682121
 C         3.9855604250        6.0975355031      -17.6120256531
 C         4.8025925081        6.7609997819      -16.5018920579
 C         6.2433651461        6.7749140921      -17.0475518343
 O         6.5284630015        7.1272025180      -18.1772719750
 C         7.4168839576        6.2476763360      -16.0595060720
 C         7.1456199913        4.6168324856      -16.1857798721
 O         6.0103201462        4.1204433432      -16.2761831323
 C         8.2844885851        3.6780193845      -16.5014603454
 C         7.9816327514        2.2671723652      -15.9596122514
 C         7.4894601364        2.3773996130      -14.5508942427
 O         7.5773694413        3.4272148246      -13.9203409581
 C         6.7122249972        1.1036712908      -13.8783143280
 C         5.2632581378        1.0843284232      -14.3109288812
 O         4.7700294359        0.1438840267      -14.8747177488
 C         4.4600295907        2.3193414937      -13.8675777359
 C         3.2853733833        2.0088692121      -12.9179471182
 C         2.3463919791        3.2848704325      -12.8947141092
 O         2.4010013177        4.0408537755      -13.8760083660
 C         1.2644265162        3.4757173938      -11.8408499200
 C        -0.1416056798        3.1718989851      -12.5214236922
 O        -0.7897346726        4.0642865587      -12.9871959294
 C        -0.6010692429        1.6750805410      -12.7123118182
 C        -2.0716402904        1.5049083039      -13.2429478695
 C        -3.0184242441        1.2583718949      -12.1029272695
 O        -3.6519598959        2.1980082971      -11.6710537093
 C        -3.5096417413       -0.2365605401      -11.7839663044
 C        -3.5927931640       -0.3444426447      -10.2315257397
 O        -2.5565875091       -0.3958485552       -9.6360530249
 C        -4.9666641962       -0.4974946907       -9.4480074326
 C        -4.7720729455       -0.4953573084       -7.9007518352
 C        -5.8149675099       -1.5386570569       -7.3413898875
 O        -6.7168589659       -1.9597106197       -8.0017912855
 C        -5.5136288145       -2.1418385072       -5.9143514727
 C        -4.3791810626       -3.2193120634       -6.0101806127
 O        -4.6152227318       -4.1063294907       -6.7673130204
 C        -2.9983424180       -3.1103172112       -5.2986857239
 C        -2.1959441736       -4.4641102105       -5.3861242018
 C        -2.7272551202       -5.4124370571       -4.2548113947
 O        -3.6209356033       -5.0182744210       -3.5639715924
 C        -2.3107351445       -6.8467043242       -4.3391245266
 C        -2.9195546597       -7.4869984954       -5.5680837702
 O        -2.2541751948       -7.7045189509       -6.5597502371
 C        -4.4495244727       -7.7443631491       -5.6723311851
 C        -4.7337864791       -8.6602443593       -6.9239594203
 C        -5.4386546326       -7.7207424820       -7.9876090865
 O        -6.0442244533       -6.7291593690       -7.7061086499
 C        -5.3443346509       -8.0807649731       -9.5038050552
 C        -6.3255497267       -7.1203682749      -10.3404591489
 O        -5.9716456166       -6.0016288037      -10.5089836414
 C        -7.5953000752       -7.6535409414      -10.9244493977
 C        -8.5947023299       -6.6180694721      -11.2995707046
 C        -9.0311243167       -5.7113114821      -10.0918913296
 O        -8.4958365167       -4.6257638689       -9.9716782125
 C       -10.1782326756       -6.1832212924       -9.2018346114
 C        -9.8395125527       -5.4583709247       -7.7706170886
 O        -8.9493879123       -4.6844168348       -7.5281105486
 C       -10.8622398758       -5.8459267289       -6.6201826377
 C       -10.2916210874       -7.0494174961       -5.7672686412
 C       -11.3893540147       -7.8090490550       -4.9881480336
 O       -12.5665054609       -7.8106185904       -5.3424729234
 C       -11.0362771803       -8.8793162721       -3.8765565034
 C       -11.9525984997       -8.2070450429       -2.6135345564
 O       -11.3742848626       -7.4667734301       -1.7859104996
 C       -13.4737328841       -8.5472261635       -2.4493130736
 C       -13.7116817118       -9.2832121582       -1.1290685618
 C       -13.3218157247      -10.7755868791       -1.0657230572
 O       -12.8844182087      -11.3493080829       -2.0850743671
 C       -13.4659932451      -11.4414730861        0.3518655006
 C       -11.9870428421      -11.3030326690        0.9674414518
 O       -11.1561747150      -12.1634813622        1.0244650513
 C       -11.7041373653      -10.0428434915        1.7473295916
 C       -14.5761191965      -10.8308347308        1.2490472679
 C       -13.8393320432      -12.9680362773        0.0747040386
 C       -11.5723655225      -10.1766737864       -4.3751772114
 C        -9.5882816562       -8.9221540382       -3.3448839858
 C       -11.4426392736       -5.6868048780      -10.0129909874
 C       -10.3299223417       -7.6903834579       -8.9262640565
 C        -3.8466794032       -7.8795740707       -9.9022914608
 C        -5.7112938303       -9.5096135350       -9.7344600799
 C        -0.7622215666       -7.0664726968       -4.4051318042
 C        -2.9338003155       -7.5778389481       -3.0690383807
 C        -5.1990725133       -0.9532890036       -4.8237230849
 C        -6.7968981073       -2.8111071555       -5.3407495556
 C        -4.9835768449       -0.4078917825      -12.2574839099
 C        -2.5345981364       -1.2288806502      -12.3411204863
 C         1.5307735696        2.4881847909      -10.7236465323
 C         1.2944628594        5.0139023143      -11.2550714093
 C         7.4243590533       -0.1681547522      -14.3091006986
 C         6.8620383227        1.0886710007      -12.3264219529
 C         8.8190108047        6.6812663365      -16.6137896931
 C         7.3226246827        6.7764006783      -14.6004007139
 C         1.8314908581        3.7402360577      -18.5054448233
 C         1.8385549076        6.0886027157      -19.7478865067
 C        -2.5811184882        6.0300974170      -14.7107614026
 C        -3.9076814013        8.0835387841      -15.2214182044
 H        -1.3338830426        9.6586200558      -12.5182875563
 H        -2.8869306558        9.1253668416      -13.0697787972
 H        -1.9241779566       10.2252508905      -13.9775576996
 H        -2.9016353304        6.8895012495      -18.5714307399
 H        -2.5772234756        5.8080690651      -17.2697822623
 H        -0.2741240667        6.9743211582      -19.0537515264
 H        -1.2515810963        5.5266198692      -19.3050820328
 H         4.0747272247        6.7209584850      -18.4756192051
 H         4.2491096176        5.0816099058      -17.8029428390
 H         4.7455068624        6.1917876409      -15.5491528879
 H         4.4767187787        7.7639114532      -16.3039946965
 H         9.2603916471        4.0764110055      -16.0861128304
 H         8.5050019247        3.5864648307      -17.5848212550
 H         8.7698094194        1.5200813804      -16.1006731986
 H         7.1349954405        1.8099240566      -16.5015830320
 H         4.0657763660        2.8171352917      -14.7608957057
 H         5.0965289310        3.1547953616      -13.4913443735
 H         3.5598233034        1.8105860527      -11.8406401280
 H         2.6908033469        1.1704253310      -13.3054229607
 H        -0.4799496701        1.2910051250      -11.7500990054
 H         0.1979808241        1.0051708500      -13.1829225944
 H        -2.1158355257        0.5437063528      -13.8873164805
 H        -2.5034497594        2.4271088180      -13.6158987436
 H        -5.3720831956       -1.5016905519       -9.7168274874
 H        -5.7269910641        0.2946865727       -9.6430138339
 H        -4.9590276981        0.3645536193       -7.4582020230
 H        -3.7518349498       -0.6419772661       -7.7120133216
 H        -3.0543425560       -2.9428507699       -4.2402940697
 H        -2.4199168042       -2.3481661152       -5.8023820083
 H        -1.1419624199       -4.2560044852       -5.0960678310
 H        -2.1953967864       -5.1076696200       -6.2357098120
 H        -5.0254234293       -6.7351763133       -5.7358759958
 H        -4.7231347515       -8.2766540582       -4.6752357424
 H        -5.4227824068       -9.4614634131       -6.6672726690
 H        -3.8330977532       -9.0018001708       -7.2270088444
 H        -8.1133231895       -8.3987870169      -10.2775612622
 H        -7.2353041967       -8.1547550844      -11.7705924646
 H        -9.4680112283       -6.9632664303      -11.7275139807
 H        -8.1798737342       -5.9068979371      -11.9689105822
 H       -11.8353350742       -6.1605626242       -6.9889106223
 H       -10.9474004799       -4.9921642358       -5.9254116678
 H        -9.5602915258       -6.6453133942       -5.0531850200
 H        -9.7518505042       -7.7835076619       -6.4119540565
 H       -13.7603085888       -9.3058774246       -3.2078540087
 H       -14.0923576080       -7.6182039237       -2.3140400554
 H       -14.7964861968       -9.2349479388       -1.0837146072
 H       -13.2407246491       -8.7304382788       -0.2753157048
 H       -11.8164644367       -9.2197513627        1.0138255589
 H       -10.6953540738      -10.0078547643        2.0687599547
 H       -12.3537284714       -9.8776235472        2.6263667688
 H       -14.4347351476      -11.3137845799        2.2294750723
 H       -15.6476365225      -11.0595559349        0.8501640623
 H       -14.3454362171       -9.7212422313        1.3218308272
 H       -14.1622535266      -13.3868985787        1.0515244592
 H       -12.9509085987      -13.4219652676       -0.2769628771
 H       -14.7065846991      -13.1537189031       -0.5746008085
 H       -11.5040754402      -10.9323893086       -3.6126447637
 H       -11.0147999387      -10.7001283764       -5.2287002864
 H       -12.5184493967      -10.0855006672       -4.7945014712
 H        -9.4201849974       -8.0507388353       -2.7851397051
 H        -8.9367910870       -8.7561710602       -4.1793051514
 H        -9.4985253377       -9.8623286365       -2.7916842189
 H       -11.4006327309       -4.6036309114       -9.9560478350
 H       -12.3994792332       -5.9907222252       -9.5598283469
 H       -11.2465135641       -6.0535887542      -10.9947687623
 H       -10.3883968904       -8.3734175364       -9.8017641533
 H       -11.2012996892       -7.8969247728       -8.3207604392
 H        -9.5036878622       -8.1500870707       -8.3509120349
 H        -3.1607665180       -8.1635546180       -9.1530833553
 H        -3.6016074774       -6.8782125850      -10.3337690580
 H        -3.7624281255       -8.5512722253      -10.7914814362
 H        -4.9504626536      -10.1966437468       -9.4920167896
 H        -5.7500336514       -9.5872934816      -10.8689415357
 H        -6.6624873965       -9.7000027618       -9.2799568838
 H        -0.3032128689       -6.5489635151       -3.5626759900
 H        -0.2430923928       -6.7586538569       -5.2971168398
 H        -0.4944486240       -8.0910174432       -4.2600574666
 H        -2.6055588480       -7.1446090076       -2.1170533242
 H        -2.7343066192       -8.6733760715       -3.0213500276
 H        -3.9738677827       -7.4140899920       -3.1046292720
 H        -5.0326271468       -1.4080035922       -3.8252846728
 H        -5.9644144957       -0.1680244697       -4.7809510918
 H        -4.3262707391       -0.4016145151       -5.2224709643
 H        -7.1058933212       -3.7300515864       -5.9312899422
 H        -7.5974806867       -2.0707644355       -5.4780238984
 H        -6.7124243598       -3.0241477213       -4.2839540144
 H        -5.4030622244       -1.3420309885      -12.0539582636
 H        -4.8770924224       -0.3866728477      -13.3790158595
 H        -5.5966204765        0.4388941614      -11.9593862331
 H        -1.8968081468       -1.7551879821      -11.6287461969
 H        -1.8248743273       -0.6838930858      -12.9594517409
 H        -3.0088781133       -2.0047272727      -12.9193517139
 H         1.4428043289        1.4920974349      -11.2258211553
 H         0.6927401156        2.4764680855      -10.0790490595
 H         2.3681031790        2.6785919570      -10.0424680346
 H         0.7173479979        4.9697146570      -10.2817318136
 H         0.8996586135        5.6314653756      -12.0383719116
 H         2.2833297393        5.3232766773      -10.9517202942
 H         7.4480462522       -0.3879282801      -15.4182090618
 H         6.8458955216       -0.9991788936      -13.9204509591
 H         8.3992536355       -0.3841656230      -14.0736436836
 H         7.9146014875        1.1921189360      -12.0854628765
 H         6.4833502934        0.2814486645      -11.8284483873
 H         6.3190313500        1.9944669107      -11.8861694158
 H         9.6215938087        6.6134496775      -15.8250808729
 H         8.7172449640        7.7205874947      -16.7992353861
 H         9.0681977526        6.2104724235      -17.5916168416
 H         6.4036243222        6.4921023154      -13.9869729826
 H         7.3144426605        7.9171440482      -14.6200106405
 H         8.0467423446        6.4466911995      -13.9486371813
 H         1.3399641597        3.2796363757      -19.3464043806
 H         1.3664124107        3.1370162239      -17.6329019056
 H         2.8411038343        3.5070215731      -18.4918878193
 H         1.3817740543        7.0432393884      -19.6059675211
 H         1.3166311504        5.4898161777      -20.5108388953
 H         2.8491411679        6.2927093982      -19.9568447120
 H        -2.0345643844        5.3612321727      -15.3720731395
 H        -3.5716195822        5.5858682513      -14.7860354938
 H        -2.2856177050        5.7081517588      -13.7014882418
 H        -4.1232677809        9.1524908956      -15.5220345311
 H        -4.2266073312        7.9944299081      -14.2063599254
 H        -4.3835969738        7.3669290532      -15.8786381529
 Na        0.7215128624        5.4070181277      -14.4905902995
 Na       -6.6695980380       -4.4730266429       -8.3615374340
