232

 C       -21.3231210162       -6.7929461030       -1.2641941669
 C       -20.8120222342       -5.7490935894       -2.2638189285
 O       -19.8351974555       -5.0586397433       -2.0235695387
 C       -21.4609837055       -5.5330992943       -3.6681864138
 C       -20.4309162121       -4.8657327770       -4.6235858100
 O       -20.2452560380       -3.6935328235       -4.6753839876
 C       -19.6454363208       -5.9141639930       -5.5808555303
 C       -18.4207751040       -5.3114099886       -6.2116564755
 C       -17.3927329197       -4.7691717588       -5.1305248109
 O       -17.2515286159       -5.2629363940       -4.0351719198
 C       -16.3587977183       -3.6573541200       -5.5816017962
 C       -16.1558058375       -2.6548706867       -4.3894411017
 O       -16.9288378474       -1.7184992864       -4.2702047768
 C       -15.0095815992       -2.7346941297       -3.4327889609
 C       -15.1454878933       -1.9090504965       -2.1493763506
 C       -15.8705206948       -2.6854619598       -1.0751967410
 O       -17.0329598348       -2.9834645889       -1.1435430529
 C       -15.0249747235       -3.1883853018        0.1777747997
 C       -13.9309778716       -4.1956722734       -0.4235670849
 O       -12.9152099169       -3.6570086904       -0.8231043062
 C       -14.3132021800       -5.6570445411       -0.4548215173
 C       -13.2601920838       -6.5035868596       -1.1610568589
 C       -13.2522289791       -6.5684639136       -2.7696544807
 O       -14.2325136206       -6.2141735734       -3.3871180750
 C       -11.9388611039       -6.7645232112       -3.6103504339
 C       -10.5778131893       -6.5557050686       -2.7705559571
 O       -10.4892058874       -6.0819087851       -1.6732528715
 C        -9.1875763318       -6.6785056237       -3.4982362735
 C        -8.2302248609       -5.5731324589       -2.8427487663
 C        -7.6633090948       -4.6370829891       -3.9093998928
 O        -7.9266250248       -4.5750673337       -5.1004903581
 C        -6.4704872725       -3.7113433730       -3.4217218053
 C        -5.2161206358       -4.6619629407       -3.7327164521
 O        -4.4696861466       -5.0326401013       -2.8615420063
 C        -4.7507222134       -4.8436378752       -5.2361325774
 C        -3.3603826976       -5.3499688515       -5.1294399476
 C        -2.3148853065       -4.2652066061       -4.6262271318
 O        -2.4979808493       -3.0942299336       -4.8497397880
 C        -0.8598503349       -4.8116933050       -4.2862668251
 C        -0.2939671474       -5.0783751696       -5.7252532341
 O        -0.2126683747       -6.1917046991       -6.1904534463
 C        -0.0088688352       -3.9179542227       -6.6516891014
 C         0.8573570388       -4.3920704892       -7.8871064085
 C         1.2061917562       -3.1959067756       -8.9044602730
 O         1.7311906372       -2.1670826252       -8.6024049176
 C         0.5763339105       -3.3798687523      -10.3793329755
 C         1.0939190860       -2.1341953212      -11.2986140194
 O         0.3537556021       -1.5452768006      -12.0090302492
 C         2.6837334798       -1.9241384072      -11.2292447662
 C         3.4048350044       -2.2029604962      -12.4829896437
 C         4.4762586052       -1.1671373550      -12.8899364893
 O         4.5253592748       -0.0961688189      -12.3144142227
 C         5.5072435691       -1.7082534407      -13.9843666952
 C         6.3775017953       -0.6312246560      -14.5824387539
 O         6.1421383377       -0.2914412985      -15.7236169784
 C         7.1742255359        0.1948664052      -13.5260284253
 C         8.6730320794        0.7048260869      -13.7336746342
 C         8.7709974766        1.5931247803      -15.0292962164
 O         9.0015205883        1.0127124384      -16.1077562046
 C         8.5255812649        3.0811432138      -15.1252168689
 C         6.9791927865        3.4686409047      -14.9408987440
 O         6.3343120716        3.1173520981      -14.0374670673
 C         6.4272422803        4.6784953939      -15.7676982801
 C         4.9844849812        4.4510021472      -16.3504912264
 C         4.8193584371        3.7098984341      -17.6885052769
 O         5.6181780994        2.8553418668      -18.0315630141
 C         3.6941257099        4.1203066023      -18.7038345299
 C         4.4375894611        5.4695468415      -19.3248555770
 O         4.2868359086        6.5260551318      -18.8184696741
 C         5.2671346265        5.1925234340      -20.6327065288
 C         6.2930142195        6.2171444035      -21.0834240847
 C         7.1156813338        5.9016806726      -22.2421100190
 O         6.5035425818        5.9632143255      -23.3309277199
 C         8.6923598047        5.6142282312      -22.2736422563
 C         8.8869172771        4.2638324740      -21.6160582179
 O         7.9300755133        3.7909188800      -20.9667564127
 C        10.3022891681        3.5612017018      -21.6033856852
 C        10.3342798689        1.9428136152      -21.4299709668
 C         9.2988772137        1.3186545498      -20.5068903489
 O         9.0530138058        1.7446514558      -19.3834068850
 C         8.4980294342        0.1258143859      -21.0802081339
 C         6.9605627334        0.6111690557      -21.0168755231
 O         6.4993633054        0.5680920976      -19.9251999109
 C         6.2374990671        1.1979813013      -22.2333199021
 C         8.8569381970       -0.3277711579      -22.5484076219
 C         8.7314432255       -1.0749332264      -19.9503694375
 C         9.1240977731        5.6818117229      -23.7375317835
 C         9.3070607182        6.6367478543      -21.3143971520
 C         3.5424352707        2.9928569162      -19.8057207863
 C         2.2247639881        4.5523089641      -18.3362050700
 C         9.2134748626        3.8835663364      -13.9610818295
 C         9.0217818949        3.5419964342      -16.4912741775
 C         6.2213264335       -2.9195756258      -13.2415302927
 C         4.6773282894       -2.3481466999      -15.2088732773
 C         1.1868422174       -4.6698544266      -11.1104063261
 C        -0.9523761519       -3.3772608237      -10.2991393491
 C        -0.0821791190       -3.7397234692       -3.4297809247
 C        -0.8657562659       -6.2081726833       -3.6333997103
 C        -6.4764607807       -2.4051629640       -4.3138032312
 C        -6.4272717087       -3.2406226406       -1.9320857545
 C       -11.9375369526       -8.2219935608       -4.1308089551
 C       -11.8658385396       -5.7164712961       -4.7170884526
 C       -14.4272910092       -1.9374093759        0.8361990710
 C       -15.9275635396       -3.9113562395        1.2242438297
 C       -15.0367580626       -4.5232438790       -5.8588466246
 C       -16.8623712526       -2.9250200628       -6.8550308468
 C       -22.0671118732       -6.7458103778       -4.3796062438
 C       -22.5604348666       -4.4059976491       -3.4698335719
 H       -22.0404134148       -6.3902729698       -0.5772619019
 H       -20.4998940660       -6.9414994819       -0.5819858593
 H       -21.6860509499       -7.6420953580       -1.7142685178
 H       -20.2778838803       -6.2611927618       -6.3992910081
 H       -19.2974534429       -6.8032235397       -4.9839943710
 H       -18.5690718176       -4.4884647085       -6.8779030923
 H       -17.9373265821       -6.0780612435       -6.8105584056
 H       -14.0826536977       -2.3524403964       -3.9621747870
 H       -14.5938275990       -3.7313584826       -3.1721251244
 H       -15.6872228899       -0.9994489998       -2.4293716094
 H       -14.1350587910       -1.6693110968       -1.8788898954
 H       -15.3374211543       -5.8129295285       -0.8458109391
 H       -14.3577190090       -5.9981459723        0.5969784333
 H       -13.2449533384       -7.4876147257       -0.7373874489
 H       -12.2877729213       -6.0706567803       -0.7886273865
 H        -9.2713471962       -6.4705742990       -4.5946041398
 H        -8.8382049460       -7.7496625389       -3.3585953036
 H        -7.4321492729       -6.0461608853       -2.2742433517
 H        -8.7014440309       -4.9148195101       -2.1563400881
 H        -4.8327761933       -3.8489739572       -5.7431959050
 H        -5.3533248320       -5.5804069902       -5.8033293678
 H        -2.9942659481       -5.7231779506       -6.1778284274
 H        -3.5152314939       -6.1609696541       -4.4060994066
 H         0.6489939106       -3.1887390198       -6.3110022560
 H        -0.9235739067       -3.3592183480       -7.0384544705
 H         0.3312317894       -5.1966583545       -8.4425867368
 H         1.7269978830       -4.8350504612       -7.3903755358
 H         3.2162583250       -2.4876236948      -10.4010473014
 H         2.6720046272       -0.8359345945      -11.0319352190
 H         2.7848152761       -2.1495457363      -13.3714100902
 H         3.7604086837       -3.2341642683      -12.4024869269
 H         7.0801061624       -0.3566338773      -12.5426139352
 H         6.5431269405        1.1527324243      -13.6135375925
 H         9.5186491946        0.0039948106      -13.8272023024
 H         8.8432718045        1.3082550388      -12.8368715742
 H         7.1199424921        5.1315133055      -16.5415713705
 H         6.4146530256        5.4442762215      -14.9706669997
 H         4.4937713281        5.4471985016      -16.6179651067
 H         4.3142749006        4.0651861263      -15.4906121165
 H         4.5303791976        4.9976043497      -21.3956818513
 H         5.8018917588        4.2159804235      -20.4295240425
 H         6.7412142999        6.5478523372      -20.1260805996
 H         5.7443626955        7.1725714636      -21.1993110672
 H        10.8735893444        3.9489514093      -20.7557569879
 H        10.9206311109        3.7633453301      -22.4629670368
 H        11.3237275066        1.5985612268      -21.0646873967
 H        10.2967465032        1.4886931329      -22.3782621645
 H         6.1204573834        0.4671909945      -23.0460656687
 H         6.8737869082        1.9427813337      -22.5737257388
 H         5.3375636506        1.7126430894      -21.9738778865
 H         8.4739479338       -1.3963526125      -22.6246503508
 H         9.8998815696       -0.3521744613      -22.7738523167
 H         8.1977134370        0.2427585781      -23.1839958290
 H         9.8287041100       -1.0388935185      -19.7884348200
 H         8.3931921336       -2.0739006212      -20.2553530255
 H         8.2218512426       -0.6934869738      -19.0490816730
 H         8.2067130845        5.6672116099      -24.4075833201
 H         9.7438979430        4.8728143154      -24.1007695517
 H         9.4796022752        6.7323797775      -23.9113285460
 H        10.3629704013        6.3314455009      -21.0297565049
 H         8.6721066913        6.6452056562      -20.4121403902
 H         9.1217672931        7.6753566107      -21.6566406383
 H         3.1802372370        2.0727789788      -19.3768348087
 H         4.5446496363        2.9785297838      -20.2679586493
 H         2.7997500814        3.3378325336      -20.5375091408
 H         2.1535254495        5.5517534407      -17.8299426800
 H         1.6596084350        3.7904490700      -17.8431391701
 H         1.6877721900        4.7791715093      -19.2525437600
 H         9.0845948442        4.9342914706      -14.1750036466
 H        10.3283774502        3.8227347669      -13.9848445610
 H         9.0022814538        3.7299894050      -12.9079749776
 H         9.9539863038        3.2091495716      -16.8625461310
 H         9.0870796156        4.6546524159      -16.7123875290
 H         8.3541146700        3.1555248636      -17.2531612633
 H         5.5860632457       -3.7282489528      -13.2588304580
 H         6.3935197280       -2.7413102613      -12.2504508384
 H         7.1495549063       -3.1389890470      -13.7542902042
 H         4.0732655880       -3.1620137797      -14.9862348040
 H         5.3840087737       -2.6568357542      -15.9865430481
 H         3.9608936485       -1.6232988363      -15.5954854164
 H         0.7886676349       -5.5321603514      -10.5470619102
 H         2.2057207320       -4.6982838752      -10.9602557050
 H         0.7971507646       -4.7686358849      -12.1159776493
 H        -1.4570297883       -2.4222525892      -10.1532115514
 H        -1.2573902311       -4.1106077640       -9.5916894109
 H        -1.2898687654       -3.6828568701      -11.2934107816
 H        -0.3017828400       -3.8517968115       -2.3279878089
 H        -0.2604089094       -2.7028339734       -3.7544211591
 H         0.9642694218       -3.7813193482       -3.5333515512
 H        -1.2928462609       -6.9142439637       -4.2390349221
 H        -1.4565261950       -6.3477198929       -2.7097178067
 H         0.1381294609       -6.5405255868       -3.4416713722
 H        -7.2608654550       -2.4102697374       -5.0547829779
 H        -5.5209962222       -2.1272320838       -4.6921065170
 H        -6.7136415847       -1.5025763934       -3.6462826557
 H        -7.1906157489       -2.4734901247       -1.6507926005
 H        -5.4372273973       -2.8017790418       -1.6360061071
 H        -6.5637918888       -4.1001774142       -1.2833615360
 H       -12.9041337880       -8.5109158304       -4.5014923057
 H       -11.5577341506       -8.8968468999       -3.3946145722
 H       -11.1925972309       -8.3599595005       -4.9860039225
 H       -12.6307106908       -5.9582058585       -5.5082650377
 H       -10.9926373656       -5.7841103037       -5.3712147175
 H       -12.0298780016       -4.7252612556       -4.3823220938
 H       -14.8716968766       -1.0407818065        0.4177287377
 H       -13.4035093687       -1.9396405456        0.7258797351
 H       -14.6233968079       -1.9588446379        1.8577185862
 H       -15.4075896249       -4.1956274921        2.1101036501
 H       -16.4197545336       -4.7168594129        0.7885234387
 H       -16.7547717487       -3.3028197772        1.4505121768
 H       -14.2878958290       -3.8057135599       -5.8080855132
 H       -14.9531444075       -4.8545444889       -6.9242822968
 H       -14.9795538958       -5.4411927698       -5.2164842777
 H       -17.9138252945       -2.4990284315       -6.5910602539
 H       -17.0902215539       -3.5348483703       -7.6718268557
 H       -16.1938109357       -2.2559220838       -7.2568433902
 H       -21.4197323492       -7.5710102754       -4.4269246729
 H       -22.3253298809       -6.5648036169       -5.3704512691
 H       -23.0254939361       -7.1037792407       -3.8945530402
 H       -22.9496152835       -4.3331353271       -2.4319615288
 H       -23.4344609358       -4.4240179149       -4.1341062293
 H       -22.1834878881       -3.3432366915       -3.7359846580
 Na      -18.3458316150       -3.3976686031       -2.7484307243
 Na        7.3295190100        0.9486768752      -17.6065835099
