232

 C        -2.0023340453        8.4936769819      -13.0269344476
 C        -1.6263925276        7.5298206368      -14.0842141459
 O        -0.4795655621        7.1524612768      -14.2182017428
 C        -2.6744512515        7.1840924618      -15.2086145365
 C        -1.9413788723        7.6706304507      -16.5978916579
 O        -1.4755561067        8.8133636483      -16.4984814282
 C        -1.9672758176        6.9450432379      -17.9531900889
 C        -0.6238387310        7.0244213451      -18.6461152969
 C         0.2703989560        5.8194233544      -17.9255499126
 O        -0.2559138585        5.1327131460      -17.0766469258
 C         1.6723083407        5.4169344233      -18.4105420808
 C         2.8287259731        5.9451967016      -17.3711072229
 O         2.5894443262        6.0043957306      -16.2126794643
 C         4.2154178633        6.2287953320      -17.9268876937
 C         5.1250112048        6.8853942631      -16.8278974617
 C         6.6293092904        6.9963297298      -17.1521440076
 O         7.1396334636        7.5353895886      -18.1010941849
 C         7.5536012261        6.2631329360      -16.0616015234
 C         7.3490656279        4.7922565053      -16.2465357978
 O         6.2204548920        4.2992614538      -16.0553410706
 C         8.5351327435        3.8713314625      -16.3015325271
 C         8.1891330460        2.4118669449      -16.0366670513
 C         7.3746576379        2.2634174172      -14.6595505581
 O         7.4689723153        3.1993887860      -13.8902054390
 C         6.6486720553        0.8952969566      -14.1989338268
 C         5.1179645568        1.0226876403      -14.6287791367
 O         4.6040620923        0.0993814994      -15.1796569337
 C         4.3386875697        2.3460818092      -14.3721685281
 C         3.4187723079        2.1899769313      -13.1663968991
 C         2.4264378158        3.3054374720      -13.0568987727
 O         2.2967698577        4.1896608789      -13.8863751806
 C         1.2608253711        3.2652359083      -11.8246289364
 C        -0.0276632339        2.9844377033      -12.5776203695
 O        -0.4900700119        3.7591231209      -13.3478584334
 C        -0.6363247575        1.5449198259      -12.4794274489
 C        -2.0739114370        1.5296585021      -13.1208346570
 C        -3.1099927560        1.3512615625      -12.0359111102
 O        -3.4928379930        2.2375683188      -11.3439472993
 C        -3.7909963503       -0.0871006667      -11.7980226530
 C        -3.7901414611       -0.3106492052      -10.1992809827
 O        -2.8502657587        0.0256899089       -9.5035217085
 C        -5.0766621389       -0.6218430396       -9.4718078667
 C        -4.8307486512       -0.8246679100       -7.9786969375
 C        -5.7887914246       -1.8401395217       -7.4544681897
 O        -6.6456603189       -2.3860114066       -8.1325394968
 C        -5.5651551921       -2.2715637240       -5.9289302417
 C        -4.4867494537       -3.3752933043       -6.0561818511
 O        -4.6347391295       -4.3905146216       -6.7566090879
 C        -3.0466211787       -3.0765874006       -5.4208925683
 C        -2.2721275413       -4.4711702685       -5.2845809417
 C        -2.8932614579       -5.2112975574       -4.0522204546
 O        -3.6286868187       -4.6288161393       -3.2849957435
 C        -2.5482040856       -6.7732315995       -4.0431515705
 C        -3.0420589547       -7.3837227597       -5.3981545880
 O        -2.4705749600       -7.2735312378       -6.4982376565
 C        -4.3972960558       -8.1488209794       -5.3971443337
 C        -4.7971277203       -8.6538874408       -6.8517209874
 C        -5.5416999617       -7.6901828661       -7.7968318664
 O        -5.9270601242       -6.6194833320       -7.3636758086
 C        -5.5846705736       -8.0972805480       -9.3844642369
 C        -6.3222734299       -7.1084367607      -10.3418543275
 O        -6.1744856877       -5.9370990379      -10.1621044330
 C        -7.4765630125       -7.6673824805      -11.2600820214
 C        -8.6625800285       -6.5869101652      -11.5447882575
 C        -8.9730118843       -5.8392084163      -10.2173623845
 O        -8.6030844739       -4.6624478402      -10.0966002164
 C       -10.0165237925       -6.3474429690       -9.2704572659
 C        -9.7745826794       -5.7642508625       -7.8164871166
 O        -8.8236209228       -5.1144607518       -7.3879922467
 C       -10.9797574978       -6.1489248422       -6.8214093857
 C       -10.4064104011       -7.0836343976       -5.6882914064
 C       -11.3862298076       -7.7861340944       -4.8981972055
 O       -12.5618555515       -7.4829043495       -4.9835729972
 C       -10.8927379964       -8.8699278520       -3.9123608775
 C       -11.5807589278       -8.4927764612       -2.5451274324
 O       -10.7729832324       -7.9978850796       -1.7425645807
 C       -13.1241141337       -8.2999116479       -2.4069873326
 C       -13.6468611784       -8.7838573078       -1.1006856590
 C       -13.2577527526      -10.2927627503       -0.9560131338
 O       -12.7929345492      -10.8132488472       -1.9526344344
 C       -13.5359324732      -11.1445745101        0.3758630552
 C       -12.1006742153      -11.1881085001        1.1393725065
 O       -11.3126217011      -12.0110449172        0.7670870533
 C       -11.8399545527      -10.4417495326        2.5350754800
 C       -14.6234367120      -10.5000294979        1.3119956824
 C       -13.9015711031      -12.5711854121        0.0534035958
 C       -11.3129691745      -10.2947121287       -4.5494559084
 C        -9.3565616662       -8.8072343858       -3.6429760340
 C       -11.2795830296       -5.4921767887       -9.7658908279
 C       -10.2793358389       -7.7945196632       -9.2061500545
 C        -4.0905443125       -7.9772370760       -9.8416289623
 C        -6.0852379132       -9.5520534513       -9.5148450218
 C        -1.0417888627       -6.6849753947       -4.0317292339
 C        -3.3626749689       -7.3703666972       -2.7839265717
 C        -5.1234143869       -1.0490761356       -5.0397678398
 C        -6.8060211056       -2.9271858396       -5.2744954387
 C        -5.2154525047       -0.3104020736      -12.4677353588
 C        -2.6688262847       -1.1040797219      -12.1566117948
 C         1.5478376083        2.1433254203      -10.7520696511
 C         1.2582998157        4.6268507003      -11.1700594464
 C         7.3080552588       -0.2860378741      -14.8714166113
 C         6.6779533405        0.7206915946      -12.6442877265
 C         8.9624433983        6.7611756112      -16.3178881714
 C         7.3477167734        6.5858639929      -14.5532251889
 C         1.8687595213        3.9418576826      -18.3290376750
 C         1.9532946486        5.9548845866      -19.8826064600
 C        -3.2304593520        5.6829256097      -14.9646054532
 C        -3.9038074023        8.0465283238      -15.1122168765
 H        -1.1708688793        8.6833125850      -12.3787093589
 H        -2.9008446890        8.1991928242      -12.4848347350
 H        -2.1440787372        9.4649991957      -13.4610938671
 H        -2.8681874773        7.4153761058      -18.4845156316
 H        -2.2624779750        5.9354118626      -17.7738461245
 H         0.0141598960        7.8852407948      -18.5349688824
 H        -0.7101008661        6.6508534007      -19.6724432033
 H         4.0919958302        6.9098340896      -18.8018872773
 H         4.6155588009        5.3014136727      -18.3777650315
 H         4.9170424853        6.3729116587      -15.8755416406
 H         4.8540934901        7.9207952566      -16.8039029099
 H         9.2857527495        4.1486077171      -15.4955114916
 H         9.0148267127        3.9389911192      -17.3364486285
 H         8.9658701558        1.7033742215      -16.0852305135
 H         7.4894366443        2.0852482462      -16.8101730461
 H         3.7877200208        2.5695839840      -15.2789192412
 H         5.0223216563        3.1783210453      -14.2144744334
 H         3.8292408375        1.9366070920      -12.1900357680
 H         2.7776593663        1.2904032386      -13.3679150757
 H        -0.5711639758        1.3040298510      -11.4482847633
 H         0.2362708912        0.8685529598      -12.8865826675
 H        -2.1353376197        0.5456043774      -13.7007580724
 H        -2.1826995279        2.4275743888      -13.7758585767
 H        -5.5062750372       -1.5780216825       -9.7518596439
 H        -5.7830219454        0.2456376464       -9.6058186581
 H        -4.9310308037        0.0826178487       -7.4880193979
 H        -3.8774392439       -1.2049495096       -7.7696416009
 H        -3.1792324790       -2.6000563899       -4.4512306660
 H        -2.5176864143       -2.5490722586       -6.1825216629
 H        -1.2743763452       -4.3378446003       -4.8651678365
 H        -2.3418606930       -5.0970577523       -6.0995281525
 H        -5.3112638068       -7.5321104259       -5.0299868599
 H        -4.1729967392       -9.0206493907       -4.7743622141
 H        -5.5266458875       -9.4516040008       -6.6048092616
 H        -4.0205942555       -9.0723277065       -7.3657187711
 H        -7.9478082219       -8.5580862587      -10.7658130955
 H        -7.2003223161       -8.0149295192      -12.2174337419
 H        -9.4965384544       -7.2054973475      -11.7864015608
 H        -8.3730239671       -5.8420710666      -12.2808448295
 H       -11.6667189495       -6.8186148966       -7.3409169128
 H       -11.4648951876       -5.2490643402       -6.4150508813
 H        -9.8156197486       -6.5256434760       -5.0000429897
 H        -9.7557330757       -7.7945893644       -6.1633688471
 H       -13.6344900396       -8.9198404072       -3.2209811519
 H       -13.2870154416       -7.1885326171       -2.4647321322
 H       -14.7050799385       -8.7075452385       -1.0588596514
 H       -13.1684258157       -8.1312757249       -0.3627033583
 H       -11.2192249422       -9.5280424531        2.3143325857
 H       -11.2756136941      -11.1381488986        3.1857534256
 H       -12.6920889580      -10.0054920407        3.0735717596
 H       -14.5003665368      -10.7562540691        2.2914483293
 H       -15.5594167605      -10.9956079208        0.9896718081
 H       -14.6878498692       -9.4176642579        1.1237676500
 H       -13.8872034099      -13.2106195497        0.9176323064
 H       -13.3484724663      -12.8117243905       -0.7839674775
 H       -14.9560214539      -12.5609634787       -0.3276446130
 H       -11.3385015338      -11.0701043883       -3.7478481984
 H       -10.6700846001      -10.7267105266       -5.3855126655
 H       -12.2904358108      -10.2858224539       -5.0072125660
 H        -9.1178348640       -7.7941875442       -3.4190073947
 H        -8.9282385720       -9.1896574336       -4.5453865534
 H        -9.0693144543       -9.5126528996       -2.8350565510
 H       -10.8422860680       -4.5048271063       -9.7551929608
 H       -12.2069554640       -5.5496276250       -9.1124768936
 H       -11.5038816143       -5.7608044731      -10.7840200837
 H       -10.5385696638       -8.2796226306      -10.2180971059
 H       -11.2396777291       -7.9656849050       -8.6579902917
 H        -9.4586733096       -8.4354315886       -9.0178649248
 H        -3.4927724760       -8.6289765163       -9.2451707751
 H        -3.7217185538       -6.9627872538       -9.6395664215
 H        -4.0317866905       -8.0227896908      -10.9424617556
 H        -5.3328018252      -10.1600699593       -9.1021782361
 H        -6.2879707467       -9.8765302821      -10.5224869760
 H        -6.9531541047       -9.6959801532       -8.7861630152
 H        -0.6520683436       -6.0251969615       -3.2818330862
 H        -0.5773628165       -6.4849094478       -4.9095387666
 H        -0.6619730956       -7.6592901467       -3.7342748981
 H        -3.2824097483       -6.8067548054       -1.8243391114
 H        -3.0929779267       -8.4361254009       -2.7179167789
 H        -4.4311275552       -7.2303106015       -2.9576449787
 H        -4.9737681566       -1.3493436411       -4.0154795126
 H        -5.9158922787       -0.3510438858       -5.0653572466
 H        -4.2380371736       -0.5896384903       -5.4064320242
 H        -7.4067732192       -3.6212893773       -5.8934277847
 H        -7.4981410866       -2.1633412523       -5.0080899249
 H        -6.4717302871       -3.3305441175       -4.3333577291
 H        -5.6517890804       -1.1342189521      -11.9545127537
 H        -5.0907461003       -0.5523569299      -13.5269124838
 H        -5.8758442083        0.4511931856      -12.2096999538
 H        -3.1582894254       -2.0900274970      -12.2902808318
 H        -2.0497556090       -1.2495683885      -11.2572739694
 H        -2.0491356150       -0.9660362276      -13.0411509594
 H         1.6600722873        1.1696847822      -11.1743468816
 H         0.7539725875        2.1104772725       -9.9357331372
 H         2.4539776365        2.3917118271      -10.2452205865
 H         0.4205678474        4.8108703688      -10.4945477492
 H         1.5300087296        5.3849494087      -11.8722334508
 H         2.0966940574        4.4842149748      -10.4924385304
 H         6.9643600944       -0.4373905272      -15.8935916411
 H         7.0221049779       -1.2525457910      -14.4599340213
 H         8.3694445493       -0.3568541588      -14.8621937498
 H         7.7020192270        0.5072007616      -12.4351773280
 H         6.2054791050       -0.0830854032      -12.2326730408
 H         6.3245214044        1.6392797163      -12.0645723890
 H         9.7302722310        6.1747220839      -15.7418083202
 H         9.0373544974        7.8009451809      -15.9432892370
 H         9.2101921507        6.8482004670      -17.3601245629
 H         6.3928067165        6.2519884303      -14.1709291682
 H         7.4619827437        7.6535855431      -14.2143794323
 H         8.1213375065        6.1085514237      -14.0086950887
 H         1.2157877566        3.3345079780      -19.0378688254
 H         1.7821102657        3.5104994044      -17.3314157883
 H         2.8703123728        3.6848161367      -18.6357703443
 H         2.2914653683        6.9652965090      -19.9177365856
 H         1.0263224262        5.8181765019      -20.3921790657
 H         2.7503469366        5.3237371700      -20.2381657330
 H        -2.5394268349        4.8923527831      -15.2271041421
 H        -4.0389237388        5.3787425506      -15.5919238969
 H        -3.5479065991        5.4773394110      -13.9390697670
 H        -3.7441677885        9.1333652649      -15.2706605972
 H        -4.3499948210        7.9607930207      -14.1130694896
 H        -4.6354259691        7.6261313119      -15.8267877702
 Na        0.5099299740        5.3399833254      -14.6882147796
 Na       -6.8175120789       -4.6324320770       -8.2634779445
