232

 C        -2.0649867010        8.3691587655      -12.8866433217
 C        -1.6938865098        7.4911944990      -14.1013033130
 O        -0.5439149453        7.0856337589      -14.2177200376
 C        -2.7804244544        7.1526570440      -15.2285422052
 C        -2.0201545896        7.6725526208      -16.5231679232
 O        -1.4075050573        8.7228014594      -16.4845349620
 C        -1.9759037036        6.9776375934      -17.9098931869
 C        -0.5415264187        7.1447559333      -18.4612996443
 C         0.2845243918        5.8783178707      -17.9630517467
 O        -0.3130215165        5.1888065466      -17.1738093648
 C         1.7671869473        5.4909584155      -18.4488403482
 C         2.8882040584        6.0646841095      -17.3835573484
 O         2.6857528680        6.0584459146      -16.1600462658
 C         4.3056123620        6.3468731974      -17.9418732479
 C         5.1438854499        6.9935828145      -16.7751496889
 C         6.6795779991        7.0304475906      -17.0987248470
 O         7.1112918973        7.6048554914      -18.0788890774
 C         7.6367694938        6.3435063192      -16.0263973862
 C         7.3936764263        4.7455143034      -16.1669361501
 O         6.2649673186        4.3030759057      -16.2813450543
 C         8.6115496603        3.7995908223      -16.2639248015
 C         8.0447918897        2.3960913055      -16.0109130736
 C         7.4592648811        2.2133500056      -14.5410006142
 O         7.4702235588        3.1124382169      -13.7455792510
 C         6.6754618588        0.8986632889      -14.2649220192
 C         5.1107283917        1.0684676949      -14.6981940757
 O         4.5035178543        0.1593561179      -15.2530408633
 C         4.3673110708        2.3197101124      -14.3322945880
 C         3.4228782199        2.1638478405      -13.1395340237
 C         2.3794216548        3.2205127877      -13.1153882108
 O         2.3990439568        4.1204036183      -13.9019179763
 C         1.4099957118        3.2300926369      -11.9249438599
 C         0.0536036364        2.9074338191      -12.6790077470
 O        -0.4053873885        3.7308463392      -13.4686958528
 C        -0.7550643040        1.5791515731      -12.4101194592
 C        -2.0640982555        1.5946468872      -13.1093078924
 C        -3.1893194670        1.3273718642      -12.0496042603
 O        -3.4713897111        2.2952727346      -11.3722010973
 C        -3.7544717572       -0.1134127298      -11.6528953244
 C        -3.9447874558       -0.0840449508      -10.0990579162
 O        -2.8814735790        0.0048955015       -9.4656992032
 C        -5.2201326786       -0.6275706378       -9.5509009435
 C        -4.9688213534       -0.7844779162       -8.0637466182
 C        -5.7893820868       -1.8523478721       -7.4154775032
 O        -6.6111752338       -2.4365704416       -8.1077331190
 C        -5.5083038848       -2.2320248343       -5.9131556780
 C        -4.4322755880       -3.3931376381       -6.1299741873
 O        -4.6622353648       -4.4497120733       -6.7726357629
 C        -3.1121417528       -3.1528707992       -5.4334542804
 C        -2.2838650240       -4.4259404666       -5.3418566151
 C        -3.0007269585       -5.1848143810       -4.1449317408
 O        -3.6689275586       -4.5996598277       -3.3088320111
 C        -2.7115753548       -6.7421329556       -4.0300330947
 C        -3.2115659548       -7.2915080412       -5.3915059808
 O        -2.4530601258       -7.0293158503       -6.2906982557
 C        -4.5193487312       -8.1432212283       -5.4318942467
 C        -4.7920745256       -8.7913272964       -6.7891353338
 C        -5.4693660183       -7.8180480223       -7.7329429665
 O        -5.9303449915       -6.7737077693       -7.2773902545
 C        -5.5840458076       -8.1420129990       -9.3009289638
 C        -6.4472422324       -7.1134457985      -10.1347727530
 O        -6.2491039915       -5.8962647140      -10.0673170468
 C        -7.3783882429       -7.6451295469      -11.2470144714
 C        -8.4361850871       -6.4805406246      -11.5462356664
 C        -8.9331346361       -5.7639687462      -10.2499956625
 O        -8.6058017111       -4.5866017414      -10.1581971128
 C       -10.0955416470       -6.2795363099       -9.2762115939
 C        -9.9016980523       -5.8572701311       -7.8348585323
 O        -8.8979132525       -5.3019055946       -7.3817923380
 C       -10.9651931712       -6.0855064396       -6.7058064665
 C       -10.2451147607       -6.9814122748       -5.6428849653
 C       -11.3939391576       -7.7250326907       -4.8491037891
 O       -12.5652962917       -7.5599073920       -5.0274923515
 C       -10.8544631214       -8.8078631223       -3.9094046752
 C       -11.4635214776       -8.4400085439       -2.4611349044
 O       -10.8115978098       -8.2216875231       -1.5177271978
 C       -12.9972416451       -8.2254563862       -2.2648727182
 C       -13.5167846295       -8.7686099749       -0.9150841771
 C       -13.2406695867      -10.2503265603       -0.8628234415
 O       -12.7121779922      -10.7949146627       -1.7825420051
 C       -13.5659487354      -11.0725729417        0.4226580136
 C       -12.2037435311      -11.2633724110        1.1945289387
 O       -11.2672860687      -11.8426920678        0.6712698225
 C       -11.9870758558      -10.4933468896        2.4377728643
 C       -14.6370656498      -10.3847408326        1.4129733809
 C       -14.0380267914      -12.5332690107        0.0161781443
 C       -11.2867023190      -10.2151681638       -4.5324318109
 C        -9.3284723928       -8.9148192750       -3.7681948171
 C       -11.2753415623       -5.5167599342       -9.9494432264
 C       -10.4429804782       -7.8505592602       -9.3638326809
 C        -4.0776038166       -8.0793009430       -9.8157775278
 C        -6.0560139670       -9.5855689061       -9.6098245769
 C        -1.1367151442       -6.8201900645       -3.8910180214
 C        -3.2890453636       -7.3328871911       -2.7226801221
 C        -5.0883731432       -1.0525198057       -5.1790133668
 C        -6.8280143864       -2.9137856262       -5.3783701217
 C        -5.1023344172       -0.3162417830      -12.3256289168
 C        -2.8058413953       -1.3155361043      -12.1558819911
 C         1.6904824667        2.0667102380      -10.9499580985
 C         1.2605057388        4.5510047375      -11.1437007556
 C         7.2121236577       -0.3024404679      -14.9998115390
 C         6.6448881805        0.6302926964      -12.7686611578
 C         9.0920216163        6.8383448548      -16.3563152726
 C         7.1761370390        6.6584082680      -14.6291033721
 C         1.6712605391        3.9228474035      -18.3148804892
 C         2.0591782676        5.9587523857      -19.9512915251
 C        -3.0834370428        5.7114495163      -15.0243323249
 C        -4.0274877509        8.0928513188      -15.2232310657
 H        -1.3311608186        8.6429699531      -12.1659045945
 H        -2.9185737533        7.8657176498      -12.4864660755
 H        -2.4075076157        9.3166946960      -13.2284735971
 H        -2.6437832371        7.7447668341      -18.3926965903
 H        -2.5272380684        6.0305662773      -18.0017669040
 H        -0.0504015649        7.9504814709      -17.9433450787
 H        -0.4370822651        7.1746218995      -19.5267855055
 H         4.2509370985        6.9297062335      -18.8654413134
 H         4.7538309658        5.4475207145      -18.2684528032
 H         4.9966507421        6.2839987933      -15.9883521788
 H         4.8230540520        8.0111866491      -16.5182036097
 H         9.4445825893        3.8986020971      -15.5809718572
 H         8.9562239911        3.8440760085      -17.3244205617
 H         8.8374281962        1.6678051501      -16.0886732064
 H         7.2701897706        2.0202506009      -16.7545772126
 H         3.7650604912        2.5534122845      -15.2429901462
 H         5.0845689708        3.1596250776      -14.1593239817
 H         3.8299680060        2.3305789088      -12.2130661448
 H         3.1136955278        1.0642365296      -13.0249504123
 H        -0.7820863599        1.4097650288      -11.3006454216
 H         0.0393699973        0.9212334514      -12.7382345898
 H        -2.0284764168        1.0379776422      -13.9997857046
 H        -2.1846656815        2.7156536898      -13.4083807223
 H        -5.2062353997       -1.6426624799       -9.9324942122
 H        -6.1246022831       -0.0084757873       -9.8488116739
 H        -5.1528311230        0.2014213846       -7.6403704450
 H        -4.0067032686       -1.0407048444       -7.9597933571
 H        -3.2838584688       -2.7234311782       -4.4167383801
 H        -2.5971265239       -2.5569535099       -6.1106329989
 H        -1.2567435201       -4.1883632298       -5.0154040476
 H        -2.4131800706       -5.0911497617       -6.1843437064
 H        -5.3604285998       -7.3294939132       -5.3392972392
 H        -4.4642388345       -8.8742484784       -4.5540076780
 H        -5.3924713964       -9.6232156296       -6.6112874174
 H        -3.8704181745       -9.1956370940       -7.3248270846
 H        -7.8458228827       -8.5921896898      -11.1228974027
 H        -6.8558823538       -7.7344106741      -12.2264889258
 H        -9.2345068049       -6.9807115550      -11.9794959614
 H        -8.0298073614       -5.7441611855      -12.1063364425
 H       -11.8434527715       -6.6349813910       -7.0276002990
 H       -11.1981439202       -5.1527287602       -6.2247097669
 H        -9.6207812731       -6.3226854238       -5.0225688130
 H        -9.5688683051       -7.7096401677       -6.1473603578
 H       -13.4781647279       -8.9091268506       -3.0489949255
 H       -13.2439240310       -7.1618086108       -2.3824247004
 H       -14.5764895586       -8.5520507862       -0.7266225990
 H       -12.8739324901       -8.2676497030       -0.1607138820
 H       -11.3806337349       -9.6224180366        2.2178499378
 H       -11.4996126853      -11.1576279818        3.2193685844
 H       -12.8727607734      -10.0397993609        2.8270797279
 H       -14.5019614049      -10.8543858414        2.4764026052
 H       -15.6476123941      -10.7319232796        1.0899880609
 H       -14.5456343594       -9.2546395577        1.4145528707
 H       -13.9392892087      -13.0019165335        0.9454933617
 H       -13.4314201936      -12.9274270504       -0.8181230538
 H       -15.0981067059      -12.6576503565       -0.2855911910
 H       -11.3575362339      -11.0643494792       -3.8069236186
 H       -10.5986620587      -10.5096497421       -5.2696049783
 H       -12.2785556819      -10.1964760327       -5.1150523085
 H        -8.9765708130       -8.1261806724       -3.1023775321
 H        -8.9851980883       -8.9614460209       -4.7547223611
 H        -9.0407973728       -9.8816856815       -3.4043109231
 H       -11.0474543529       -4.4702304353       -9.8134318302
 H       -12.2683664765       -5.8190356372       -9.5819662994
 H       -11.2230416032       -5.7330424228      -11.0274000511
 H       -10.4985583773       -8.2416353547      -10.3656604804
 H       -11.4472516943       -8.1115732513       -8.9743828365
 H        -9.6524401792       -8.4748239417       -9.0224640347
 H        -3.4199756970       -8.7093824317       -9.1485937483
 H        -3.6869890582       -7.0903569346       -9.7963195785
 H        -4.1023809823       -8.3246370205      -10.8655372880
 H        -5.4564479213      -10.2741805893       -9.0010835502
 H        -6.0074572685       -9.7980716265      -10.6141463902
 H        -7.1010610558       -9.6982250724       -9.1968644661
 H        -0.6142804571       -6.0511572550       -3.3947082262
 H        -0.6710189363       -6.9319718675       -4.8443002956
 H        -0.9242085904       -7.7694265647       -3.3764942293
 H        -3.1110490350       -6.6972423845       -1.8790914786
 H        -2.6690654270       -8.2001044124       -2.6932717763
 H        -4.3667266175       -7.5602804563       -2.6355154420
 H        -5.0698433288       -1.3146721868       -4.1068160486
 H        -5.8626063869       -0.2828579257       -5.3122139896
 H        -4.0916235039       -0.7312385110       -5.4365251190
 H        -7.1283658650       -3.6938039706       -6.0473994241
 H        -7.6519665321       -2.2220828421       -5.5296009501
 H        -6.8241344843       -3.1918112276       -4.2849514135
 H        -5.7276448512       -0.9520988537      -11.6828107097
 H        -4.9291900453       -0.7672009294      -13.2420919096
 H        -5.6685434526        0.5660947860      -12.3132778231
 H        -3.4582254733       -2.2111705747      -12.3042944230
 H        -2.0658305654       -1.6120342545      -11.4091263865
 H        -2.2833084066       -1.1043950846      -13.1043313007
 H         1.8467796947        1.1079855662      -11.3943980393
 H         0.8605005809        2.0189752165      -10.1582397291
 H         2.6356821352        2.2620513005      -10.4022381110
 H         0.3711848151        4.4215033211      -10.5969833196
 H         1.2551983720        5.4356849549      -11.8223530967
 H         2.0633873965        4.6228841695      -10.3519766108
 H         7.2007375337       -0.1775820896      -16.0216803401
 H         6.5727556390       -1.1764358760      -14.9332587620
 H         8.2038670212       -0.7226279461      -14.6914273082
 H         7.6552125525        0.5681007372      -12.4420353694
 H         6.2733959216       -0.4003078880      -12.4485322252
 H         6.1233466428        1.3437946310      -12.2097014409
 H         9.7657483802        6.3300674098      -15.6692599267
 H         9.2570597057        7.9759725701      -16.2188858272
 H         9.3865933295        6.6281633045      -17.3703534007
 H         6.1428621633        6.4106643408      -14.5692161260
 H         7.2791388991        7.6935585732      -14.2487366590
 H         7.8011950756        6.1049216148      -13.7869189536
 H         1.1732073874        3.4712438111      -19.2078964490
 H         1.1640010477        3.6575949984      -17.4644971625
 H         2.6226451499        3.3456935465      -18.2232984999
 H         1.7456049000        6.9550522066      -20.1270732066
 H         1.5658654889        5.2957233989      -20.5789089815
 H         3.1570457441        5.8770809580      -20.0342180109
 H        -2.3775026189        4.9450689195      -15.3856303945
 H        -3.9342987161        5.4334082778      -15.6448434970
 H        -3.3913440029        5.4233079008      -14.0361074720
 H        -3.6554718237        9.0481408364      -15.4950361917
 H        -4.4779888805        8.2564822594      -14.1918158178
 H        -4.8745254005        7.7512315665      -15.8773798667
 Na        0.7023065860        5.2750072686      -14.8875303813
 Na       -6.7203432166       -4.6410558776       -8.3116167526
