232

 C        -2.4208403699        7.9779166312      -12.8485480453
 C        -1.8385434066        7.2789357244      -13.9898040482
 O        -0.7327192487        6.7347922618      -13.9081438277
 C        -2.6539893242        7.2121070145      -15.2846091773
 C        -1.6765660502        7.9870771808      -16.4531285323
 O        -1.0900321989        9.0345046362      -16.2529117647
 C        -1.7563807733        7.3460394051      -17.9024443191
 C        -0.4685200311        7.0642635869      -18.6512265440
 C         0.3923286500        5.8746970655      -18.0412087883
 O        -0.0920761828        5.3196656133      -17.0674333602
 C         1.7293461576        5.6366186725      -18.4550671318
 C         2.8357395823        6.2856650122      -17.4739590048
 O         2.5463012826        6.3164754717      -16.2899856816
 C         4.2383871008        6.7321125911      -17.9504732974
 C         5.1166727772        7.0679063084      -16.6979579958
 C         6.6146415115        7.1631512138      -17.0080302327
 O         6.9991317207        7.6696782238      -18.0398057313
 C         7.5820102170        6.4494833824      -16.0282958899
 C         7.2918399262        4.8250168792      -16.2872112017
 O         6.2831159222        4.3699536100      -16.8301699250
 C         8.4633112455        3.9581643576      -15.8594578026
 C         8.1693922171        2.4445191474      -15.9135440103
 C         7.6036786036        1.9228697259      -14.5710928316
 O         7.6672253577        2.6967191388      -13.6357818757
 C         6.7155909292        0.6234919202      -14.4882168724
 C         5.2464996306        1.0733194688      -14.9220872034
 O         4.4912846222        0.3053978663      -15.4863925664
 C         4.6264948597        2.4293672054      -14.4520527233
 C         3.7705956671        2.3432202251      -13.1789169021
 C         2.6038424433        3.2392426664      -13.1658910161
 O         2.5830077067        4.1783437054      -13.9551359298
 C         1.3877712706        2.9936223713      -12.1360402654
 C         0.1171142733        2.7648029862      -12.9217374510
 O        -0.1421690518        3.4160926959      -13.9073723666
 C        -0.7429143169        1.6386436987      -12.3120214583
 C        -2.1046079718        1.5749904433      -13.0388093374
 C        -3.2417466829        1.3179153920      -11.9916374547
 O        -3.8473310674        2.2546482044      -11.5252228994
 C        -3.8352383421       -0.0479808194      -11.7573175217
 C        -4.0720206924       -0.0721562326      -10.1981350273
 O        -3.0354478871        0.0457147776       -9.5563445796
 C        -5.4096048929       -0.2491436217       -9.5336050916
 C        -5.5232862115       -0.2990973285       -8.0322815008
 C        -5.9904124658       -1.6965363324       -7.4857299799
 O        -6.5915096125       -2.4827539737       -8.2150656597
 C        -5.6471772916       -2.2249819132       -5.9454100296
 C        -4.4669340176       -3.3246307335       -6.1615475459
 O        -4.7300198352       -4.3570637057       -6.8240305169
 C        -3.0407670596       -3.0787245413       -5.5426205225
 C        -2.2437952275       -4.3479311973       -5.1547031387
 C        -3.0974728494       -5.1866745160       -4.1036185489
 O        -3.9415472703       -4.6707889778       -3.3799151526
 C        -2.8541219244       -6.6526563555       -4.0056556142
 C        -3.3676612444       -7.3417143360       -5.2263229026
 O        -2.7176815833       -7.1711855242       -6.2376036840
 C        -4.5945652089       -8.3357710939       -5.2536157580
 C        -4.7469157963       -8.8718384490       -6.7049929931
 C        -5.5052140808       -8.0461043183       -7.6342314524
 O        -6.3141676419       -7.1764671339       -7.2257388413
 C        -5.3473836473       -8.3651433038       -9.1878058417
 C        -6.2002950561       -7.2262061274       -9.8871124498
 O        -5.7130568397       -6.1172420544       -9.9623905408
 C        -7.4526111217       -7.5134745121      -10.8314943054
 C        -8.2871395557       -6.3345234507      -11.4187707075
 C        -9.0096439588       -5.4538714551      -10.4100666972
 O        -8.4697127981       -4.4197137037      -10.0199033561
 C       -10.2280694243       -6.0828245574       -9.5765160544
 C        -9.8955248346       -5.9223922056       -8.0922643689
 O        -8.7540627226       -5.6382996196       -7.7289382646
 C       -11.0180395097       -6.2786946969       -6.9288927087
 C       -10.3413377524       -6.7413036944       -5.6122381030
 C       -11.3201220012       -7.6892800776       -4.8670978227
 O       -12.4774999096       -7.5560419147       -5.0883030141
 C       -10.8434064020       -8.7644509386       -3.7195575393
 C       -11.2300961099       -8.5284589630       -2.2309924592
 O       -10.4206197543       -8.7948052372       -1.3990580982
 C       -12.6795848612       -8.0408318119       -1.9659612096
 C       -13.3068496054       -8.6529765985       -0.7104961267
 C       -13.2315006917      -10.2002469826       -0.7185983332
 O       -12.7213666103      -10.8425718256       -1.5938262995
 C       -13.7174349492      -10.9503970798        0.6057720278
 C       -12.2622382513      -11.1576964369        1.3251760918
 O       -11.4705574685      -11.7757642011        0.6622661563
 C       -11.9005780765      -10.5511647112        2.7184788162
 C       -14.8522754280      -10.1921608267        1.3590478234
 C       -14.2166825831      -12.4657146591        0.1853757261
 C       -11.5206536238      -10.0567546292       -4.1311106282
 C        -9.3109137386       -8.9701755104       -3.7241358414
 C       -11.5859680893       -5.4148818930       -9.9379510800
 C       -10.3301998477       -7.5688609416       -9.7562726875
 C        -3.8763465986       -8.2816539734       -9.7232765215
 C        -5.8695879536       -9.8344010263       -9.3636198217
 C        -1.3282292926       -7.0675549804       -3.8738153698
 C        -3.5923864938       -7.2642722918       -2.6901094231
 C        -5.3452296342       -1.0282561704       -5.0721381404
 C        -6.9021491083       -2.9161798658       -5.3377187272
 C        -5.1740563855       -0.1290315860      -12.4890975408
 C        -2.8716687755       -1.1970751133      -12.2092266253
 C         1.7010110164        1.9440974590      -11.0416656526
 C         1.3029349143        4.4024453283      -11.4143198758
 C         7.2319336433       -0.5831422655      -15.3354070145
 C         6.6143538257        0.1750041472      -13.0346059458
 C         9.0263578234        6.7362157410      -16.4410202170
 C         7.3660314478        6.7673587235      -14.4747126580
 C         2.1591843958        4.1120514544      -18.3789150044
 C         1.9419184384        6.0721616763      -19.8988710544
 C        -3.0021676483        5.8116589809      -15.7436441447
 C        -4.0373427874        7.8709606277      -15.1333743033
 H        -1.6374683732        8.1762397109      -12.0915941181
 H        -3.3088117730        7.3996897230      -12.4578705071
 H        -2.7730776262        8.9935140247      -13.1057765968
 H        -2.2076856618        8.1489895233      -18.5560049725
 H        -2.5015787999        6.6119097440      -17.8543186569
 H         0.1315757396        7.9819455800      -18.4701978943
 H        -0.6560636956        6.8677273665      -19.7361933897
 H         4.3798398002        7.4899178754      -18.7753570874
 H         4.7438359624        5.9041287385      -18.5125735037
 H         5.0643610843        6.2877722309      -15.9222987457
 H         4.7850464996        8.0387625010      -16.3276861755
 H         8.6935342086        4.2365339051      -14.8065348650
 H         9.3625755952        3.9809743057      -16.5286167842
 H         9.0856850694        1.9849314092      -16.1157369968
 H         7.5087908611        2.2377812592      -16.7640205953
 H         4.0104940497        2.7783824871      -15.2530026130
 H         5.4284520417        3.0887604209      -14.2193795226
 H         4.3429727750        2.3971009549      -12.2906972824
 H         3.3023109108        1.3208499949      -13.0358208990
 H        -0.8928890375        2.0004715761      -11.3078118546
 H        -0.1484836432        0.6265062715      -12.3486587075
 H        -2.0281896812        0.8130615001      -13.8490774432
 H        -2.4415967988        2.4014801861      -13.7138043481
 H        -5.6832466890       -1.2367434570       -9.8957033829
 H        -6.0529527312        0.5405040926      -10.0072739734
 H        -6.3274774113        0.4503521754       -7.8551315071
 H        -4.6191862594       -0.0321872225       -7.6433938299
 H        -3.1299246417       -2.3331940683       -4.6989659345
 H        -2.4785509693       -2.7092328453       -6.4078768384
 H        -1.3602913716       -3.9890819639       -4.6134460956
 H        -2.1067464788       -4.9879143404       -5.9574445372
 H        -5.4034418654       -7.7429421920       -4.8236048472
 H        -4.3585975855       -9.1879090822       -4.7043598510
 H        -5.4126973119       -9.7360490841       -6.5553087622
 H        -3.8692865203       -9.3640187188       -7.0219386409
 H        -8.0857807858       -8.3593342912      -10.4323433278
 H        -7.0488371622       -8.0649279490      -11.6767639614
 H        -9.1042086277       -6.7782420241      -12.1117313708
 H        -7.5763154011       -5.6643996621      -11.9684462352
 H       -11.7747961125       -7.0514649489       -7.2124837081
 H       -11.5904189153       -5.3261878614       -6.7416928870
 H       -10.2446325076       -5.9772180668       -4.8647362030
 H        -9.3585124851       -7.0881128115       -5.8370908679
 H       -13.3574207817       -8.2044582403       -2.8863355017
 H       -12.7099544363       -6.9500378135       -1.9136257489
 H       -14.2747829252       -8.2555945913       -0.5462443582
 H       -12.6947149743       -8.3714668630        0.1547036988
 H       -11.3758151087       -9.6166630261        2.5228337327
 H       -11.3174407178      -11.2721806976        3.3402788939
 H       -12.7399667089      -10.1688719583        3.2275357220
 H       -15.5521162890      -10.8949525816        1.7606386164
 H       -15.2494174195       -9.4214872684        0.7924129589
 H       -14.4465766894       -9.8035805058        2.2402784349
 H       -14.6345715833      -12.9237439364        1.0654346875
 H       -13.3859965107      -13.0412116687       -0.1876456428
 H       -14.9641724242      -12.3669490268       -0.6516643779
 H       -11.1569212743      -10.8860482970       -3.5219408039
 H       -11.4891579331      -10.3690811668       -5.1723949821
 H       -12.5618666414      -10.0318538687       -3.7629675111
 H        -8.7926545219       -8.0543564239       -3.4396613375
 H        -9.1136320637       -9.4958364746       -4.6462082386
 H        -9.0122499610       -9.6780092423       -2.8914790835
 H       -11.3859828243       -4.3644061458       -9.9170260277
 H       -12.4032871513       -5.7564868751       -9.2333760869
 H       -11.9702790792       -5.6981144236      -10.9191828791
 H       -10.5317725290       -7.9960563742      -10.7825006497
 H       -11.3107778565       -7.9228365894       -9.2146590782
 H        -9.5801800785       -8.1151464819       -9.1891176966
 H        -3.2481310652       -9.1234511863       -9.3576049285
 H        -3.4251551158       -7.3248450170       -9.5263587917
 H        -3.9478161857       -8.4616543948      -10.8195073575
 H        -5.1316132454      -10.5130654624       -8.9636412697
 H        -5.9889997503       -9.9861936789      -10.3847953133
 H        -6.9011792825      -10.0597273369       -8.8364626908
 H        -1.0873215873       -6.8136141958       -2.8187527571
 H        -0.6236929311       -6.5246947397       -4.4356324379
 H        -1.1383094995       -8.1907411550       -3.9611399032
 H        -2.9669811204       -6.9124483602       -1.8283929169
 H        -3.6707350981       -8.3752209989       -2.7378534526
 H        -4.5997278970       -6.7885254824       -2.6976250348
 H        -4.9680910128       -1.2387858202       -4.0676209265
 H        -6.3099916791       -0.5725500018       -4.9745038143
 H        -4.6207499704       -0.3828868350       -5.5022783319
 H        -6.9651211887       -3.9644629727       -5.6717599852
 H        -7.8084365706       -2.4699506573       -5.6651587053
 H        -6.8734026588       -2.8865191186       -4.2437626462
 H        -5.3082815175       -1.2317649105      -12.6869131936
 H        -4.9802480150        0.3806221412      -13.4525802926
 H        -6.0008406950        0.2629407492      -11.9299265892
 H        -2.9944745457       -2.0186064476      -11.5059390482
 H        -1.8416806317       -0.8923150409      -12.2582641196
 H        -3.0324039412       -1.4663416863      -13.2281120116
 H         1.7526051336        1.0444733741      -11.5282646284
 H         0.7629264258        1.9152532588      -10.3837366465
 H         2.5697986818        1.9323217751      -10.4717763142
 H         0.6296351113        4.3551592373      -10.5940951777
 H         0.9389508107        5.1799171803      -12.0943923887
 H         2.3472475019        4.5975669632      -11.1239602943
 H         7.4505144351       -0.3308636179      -16.3472959489
 H         6.4326203147       -1.3467804684      -15.4789059288
 H         8.0720856833       -1.2004743823      -14.9260772113
 H         7.5324205111       -0.2927454422      -12.7032590071
 H         5.7821830481       -0.5340685701      -12.7921623405
 H         6.5423183356        1.0355759538      -12.3578215704
 H         9.8254959414        6.3621457390      -15.8222429080
 H         9.0715127510        7.8654688938      -16.5367346403
 H         9.2206068401        6.3776407778      -17.3901708825
 H         6.5697219497        6.2821477078      -14.1165313506
 H         7.2688650482        7.7978940671      -14.2174105894
 H         8.2788678117        6.4972044628      -13.8871910727
 H         1.3801079079        3.3458482737      -18.7188443233
 H         2.5589956193        3.8239076036      -17.4697555154
 H         2.9618603203        3.9203311001      -19.1187830512
 H         1.8253647182        7.1539131728      -19.9135385262
 H         1.1351670866        5.6095623846      -20.4657244706
 H         2.9111983497        5.5650270219      -20.2236959462
 H        -2.1802995843        5.0751777055      -15.7749389042
 H        -3.4841938301        5.6111762151      -16.6804310623
 H        -3.6892941307        5.3140430066      -15.0508355727
 H        -3.8992617727        8.8857265861      -14.7754267820
 H        -4.6995843193        7.2780212732      -14.5003972462
 H        -4.6499875694        7.9267470114      -16.0437535247
 Na        0.8230308176        5.2705075512      -14.9784220354
 Na       -6.6924476436       -4.8657678705       -7.9114768444
