232

 C        -2.4653078003        7.8491994751      -12.8126967520
 C        -1.7810082179        7.1646737039      -13.9483521492
 O        -0.7503054483        6.5147587188      -13.7536518126
 C        -2.5061012589        7.1864969984      -15.4455170023
 C        -1.6880413170        8.0164345303      -16.5140622095
 O        -1.1204218873        8.9404896080      -16.0685254346
 C        -1.7412185122        7.5903608351      -18.0184067864
 C        -0.4232747013        7.1360715889      -18.6747732341
 C         0.3855647260        5.9287524216      -17.8909946524
 O        -0.1603402838        5.2074359527      -17.1025046695
 C         1.9050589469        5.7188755331      -18.5461517333
 C         2.8515052993        6.4391575049      -17.5161358461
 O         2.5016902937        6.4938972282      -16.3150205641
 C         4.2080001730        6.8243812270      -17.9199854785
 C         5.0624106406        7.1106917750      -16.6395481479
 C         6.5408188864        7.1546747566      -17.0156829523
 O         6.9764515411        7.7144491524      -17.9942900084
 C         7.5744840047        6.3832927394      -16.1328128658
 C         7.3555955472        4.8679507284      -16.2812258356
 O         6.3697105830        4.4906641149      -16.8387482496
 C         8.4484832986        3.8954377013      -15.7226972801
 C         8.1971802568        2.4176089641      -15.9072588811
 C         7.6453628349        1.8628003987      -14.5812941977
 O         7.7658735955        2.4565615299      -13.5296682751
 C         6.7478217935        0.6410066006      -14.6062441248
 C         5.2812435390        1.0601496908      -14.9430541298
 O         4.6110042126        0.2813035893      -15.6171808338
 C         4.7493123680        2.4285272158      -14.4468152420
 C         3.8776868102        2.2875602654      -13.1852006984
 C         2.7428159090        3.2967354101      -13.2115808278
 O         2.6035335848        4.2033396530      -14.0001205351
 C         1.5339518128        3.0960012601      -12.1847589149
 C         0.1687651873        2.7002546067      -12.9581619395
 O        -0.2041930412        3.1217198545      -14.0724323348
 C        -0.7853514771        1.6880219380      -12.3193778591
 C        -2.1220916139        1.6669284762      -13.0857317001
 C        -3.4235786977        1.4703345352      -12.1594816318
 O        -3.8303238498        2.4984009846      -11.6380770991
 C        -3.9674470087       -0.0532329046      -11.8492258790
 C        -4.1318824090       -0.1882374820      -10.1460926282
 O        -3.2014064665       -0.0784312766       -9.4003256118
 C        -5.6524173879       -0.1615925608       -9.5335701856
 C        -5.6293979167       -0.3156492632       -7.9711063599
 C        -5.9281912466       -1.7404627640       -7.4798276011
 O        -6.5029977183       -2.4841688586       -8.2054773236
 C        -5.6469068089       -2.1439570442       -6.0105795953
 C        -4.4175045119       -3.2324247255       -6.1647885361
 O        -4.6820211869       -4.2821121381       -6.7069417587
 C        -3.1352929108       -3.0036382218       -5.5122241984
 C        -2.4038751257       -4.3388800361       -5.2089620324
 C        -3.2240384664       -5.1434190393       -4.0847014246
 O        -4.0399257033       -4.4851480409       -3.4892557968
 C        -3.0047366293       -6.7445280162       -3.8602518634
 C        -3.3352435896       -7.4413705725       -5.3658954001
 O        -2.7215134779       -7.1896813245       -6.3354308584
 C        -4.5455235078       -8.3898900955       -5.2945181920
 C        -4.8095672459       -9.1582676961       -6.6107252239
 C        -5.5373786750       -8.1253874034       -7.5451738929
 O        -6.3250401866       -7.3174032662       -7.1742548873
 C        -5.3553010379       -8.3475851798       -9.1435832435
 C        -6.1038842891       -7.1735040181      -10.0339952958
 O        -5.6196904465       -6.0513325440      -10.0422073543
 C        -7.3324827940       -7.5774987734      -10.7676976509
 C        -8.0574924949       -6.3965811047      -11.3095315529
 C        -8.8767529780       -5.4920407471      -10.2261649101
 O        -8.5602221998       -4.3523410810      -10.0858049306
 C       -10.2102891721       -6.1166149163       -9.4887857524
 C        -9.8812421508       -5.9962705473       -7.9606469404
 O        -8.8229542628       -5.7121358374       -7.5023422469
 C       -10.9847566065       -6.4970146215       -6.9767910575
 C       -10.3293888413       -6.7523292028       -5.5971422601
 C       -11.3799411692       -7.6132856963       -4.7381439165
 O       -12.5695703970       -7.5794330474       -5.0240261772
 C       -10.7911290157       -8.7733797968       -3.8368881287
 C       -11.1731076746       -8.4647505941       -2.2397861204
 O       -10.4467447424       -8.7646326556       -1.3494409673
 C       -12.5110264633       -7.8365930172       -1.8583370308
 C       -13.2663437017       -8.5972059388       -0.6645178398
 C       -13.2765745439      -10.1741524807       -0.6445346677
 O       -12.9193122648      -10.7688965952       -1.6282007489
 C       -13.7185792638      -10.9374744153        0.6108769198
 C       -12.3324459018      -11.1808190818        1.3986693801
 O       -11.4839131772      -11.9048041731        0.8715303447
 C       -12.0629019840      -10.5906329178        2.7190192551
 C       -14.7150165204      -10.1650469609        1.4778305388
 C       -14.1762488588      -12.3545637022        0.2909694846
 C       -11.4227894397      -10.0967320191       -4.2486577871
 C        -9.2280888789       -8.9478177729       -4.0350840879
 C       -11.4594154731       -5.2342672910       -9.8814545741
 C       -10.5685731121       -7.6122922475       -9.8610466886
 C        -3.9096927457       -8.3833185107       -9.4797179706
 C        -5.8859648986       -9.7891700697       -9.3963944349
 C        -1.4765663429       -7.0571828949       -3.8008960583
 C        -3.6790493755       -7.3659699215       -2.6274673617
 C        -5.3617697661       -0.9827804324       -5.0545401106
 C        -6.8333639468       -2.9671632050       -5.4385220705
 C        -5.3063834090       -0.3338530272      -12.5529659863
 C        -2.8763720653       -1.1441091255      -12.2514543946
 C         1.8080172360        1.9833021032      -11.1800139434
 C         1.3001655403        4.5101824046      -11.3942528234
 C         7.2493205417       -0.5758637624      -15.5028928693
 C         6.6011373979        0.0559160932      -13.1337254769
 C         8.9385464307        6.8093505091      -16.5982798877
 C         7.3218037604        6.6754924246      -14.6077344513
 C         2.2894149732        4.2056063527      -18.3585583828
 C         2.0630143482        6.2269889002      -20.0633413487
 C        -2.8622435495        5.7582149666      -15.8625820664
 C        -3.8958164369        7.9752032282      -15.3356202299
 H        -1.7539310961        7.7070697846      -11.9813474452
 H        -3.4393184058        7.4035435703      -12.5993065027
 H        -2.5848390078        8.9329581385      -12.8962436726
 H        -2.1043690659        8.3926360716      -18.6923067659
 H        -2.5367261590        6.7733205852      -18.0901259639
 H         0.2601061322        7.9041601793      -19.0104735860
 H        -0.8231508422        6.5541306842      -19.5018435986
 H         4.1912488182        7.7102637865      -18.5812820951
 H         4.6932882967        6.1894427750      -18.6168399465
 H         5.0550118029        6.3011785141      -15.9302937960
 H         4.6781942366        8.0364897216      -16.1768582562
 H         8.4111900705        4.0560334088      -14.6140301679
 H         9.5145839352        3.9730627922      -16.1109735789
 H         9.1296348589        1.9545555700      -16.0597035866
 H         7.5586583016        2.2546935082      -16.7841088376
 H         4.0622039217        2.7312057104      -15.2084427526
 H         5.5656311217        3.1383676562      -14.2805958721
 H         4.4066347110        2.3696083533      -12.3029651733
 H         3.4137594059        1.2456122380      -13.0463369613
 H        -0.9778649545        2.0148774225      -11.2319536500
 H        -0.3646091072        0.6864044760      -12.4311266955
 H        -1.9873139001        1.0372875459      -13.9157689064
 H        -2.4474087826        2.5494116835      -13.7448867501
 H        -6.2642432061       -0.9157662098      -10.0373681915
 H        -5.9412145536        0.8918430863       -9.8511413950
 H        -6.3615273452        0.3300871305       -7.6234649951
 H        -4.6663528926       -0.0081535422       -7.7202929514
 H        -3.3311802191       -2.3713906994       -4.6234174009
 H        -2.5352622118       -2.5097097738       -6.2162573195
 H        -1.5486535955       -4.0597812261       -4.6813395955
 H        -2.2681163819       -4.9260483737       -6.1159099731
 H        -5.3434948530       -7.6513426507       -4.9626337192
 H        -4.2743605119       -9.1034239742       -4.4121246581
 H        -5.2714589217      -10.0353569171       -6.4815182680
 H        -3.8255878592       -9.5078449153       -7.0342294288
 H        -7.9041841083       -8.1661037238      -10.1195920555
 H        -7.0478807657       -8.3977630043      -11.4957891498
 H        -8.8844008637       -6.6975760316      -11.9225465743
 H        -7.4024551087       -5.7837924398      -11.8486039746
 H       -11.4944383470       -7.4188817856       -7.3059911097
 H       -11.7692370598       -5.7335202451       -6.9365353238
 H       -10.0842633778       -5.9133045808       -4.9703135323
 H        -9.3913774131       -7.2446786283       -5.7910372093
 H       -13.2594218778       -7.8263770307       -2.7274858400
 H       -12.4720155912       -6.7314683660       -1.6699181683
 H       -14.2313143385       -8.1242940899       -0.6059388575
 H       -12.8073448002       -8.3761719327        0.2998756221
 H       -11.6896139476       -9.5717738175        2.7540486605
 H       -11.4335189337      -11.3418088937        3.2801288246
 H       -13.0495723422      -10.4833779459        3.2110537761
 H       -15.4995218368      -10.7663068558        2.0437074276
 H       -15.1438305068       -9.5142064698        0.7814725704
 H       -14.3049931325       -9.5487661872        2.2401788810
 H       -14.4916642255      -12.7970712047        1.1979019573
 H       -13.3249728080      -12.9789658952       -0.1166331334
 H       -14.9461297211      -12.2806596524       -0.4551942192
 H       -11.1765451282      -10.8709844949       -3.4673388632
 H       -11.1908271851      -10.5116293800       -5.2036557389
 H       -12.5638313671      -10.0765799386       -4.0432225005
 H        -8.7291057337       -7.9721601970       -3.8802100067
 H        -9.0199012119       -9.5596419433       -4.9017944402
 H        -8.8908357170       -9.4521668144       -3.1533401373
 H       -11.3474278664       -4.1484940255       -9.9988882688
 H       -12.2199219158       -5.5556217976       -9.1847389313
 H       -11.8727430374       -5.7083821852      -10.7957547585
 H       -10.4840934489       -7.8296565242      -10.9314437275
 H       -11.6143062766       -7.9917710591       -9.6448632341
 H        -9.9475563611       -8.3387005750       -9.2180106769
 H        -3.3961364394       -9.2934321766       -9.0161208325
 H        -3.4242118112       -7.4603563936       -9.2066073812
 H        -3.8169964055       -8.6386052075      -10.5313493008
 H        -5.0056338719      -10.4596394310       -9.1986770786
 H        -6.2063337626       -9.9270854343      -10.4163506811
 H        -6.6597444701      -10.0963123060       -8.7515001238
 H        -0.9819300492       -6.8921573267       -2.8958085579
 H        -1.1264592327       -6.2605731421       -4.4588487967
 H        -1.1731759235       -7.9740098904       -4.2041768605
 H        -3.1033194430       -6.9702387412       -1.7973143230
 H        -3.6762383560       -8.4741993137       -2.6117293749
 H        -4.7422810642       -6.9820395871       -2.6999035924
 H        -5.1397779870       -1.4662708964       -4.1423032973
 H        -6.2614913466       -0.4602305511       -4.8536980959
 H        -4.5529960899       -0.3517864523       -5.2678144801
 H        -6.9328548252       -3.7495221968       -6.1214228531
 H        -7.7601401109       -2.4063040795       -5.5318960732
 H        -6.7327324564       -3.3728772862       -4.4168548884
 H        -5.5563917186       -1.4107950102      -12.4080615574
 H        -5.1642887308       -0.1357976060      -13.5736971166
 H        -6.0599103873        0.3534708675      -12.1367344104
 H        -3.0614392996       -1.9869119739      -11.5951920253
 H        -1.8614697617       -0.7996374637      -12.1520038217
 H        -2.8837205655       -1.3875778865      -13.3139454580
 H         2.0074884054        1.0483390778      -11.6989216898
 H         1.0102681882        1.8505413952      -10.5166808795
 H         2.7162315360        2.0832039819      -10.5606588578
 H         0.4365105409        4.5452445756      -10.8049302212
 H         1.1567871109        5.3028611468      -12.1435357395
 H         2.2587380576        4.6882501472      -10.9145799427
 H         7.2218279467       -0.4234099664      -16.5549999082
 H         6.5601480639       -1.4063322098      -15.3446767700
 H         8.2339923870       -1.0424272694      -15.2379863102
 H         7.4484115853       -0.5883041553      -12.9667880976
 H         5.6731877042       -0.5981791056      -12.9709766995
 H         6.6947501101        0.7130494669      -12.3720922560
 H         9.7541220188        6.2115637491      -16.2320090376
 H         9.1078748116        7.9004746215      -16.4572943544
 H         9.0076122262        6.6231384893      -17.6853490278
 H         6.3352563690        6.3010735528      -14.2536160866
 H         7.3901446896        7.7129864964      -14.4253285794
 H         8.1306163136        6.2647001506      -13.9316893114
 H         1.3825200646        3.6378325270      -18.5121266383
 H         2.5823103444        4.0202886125      -17.3307510978
 H         3.0263707073        3.6538473042      -19.0258679714
 H         2.2452813154        7.2734788443      -20.0477420774
 H         1.0852106885        6.0952019225      -20.4417913892
 H         2.6671692178        5.5402074535      -20.6480869042
 H        -2.1627957037        5.0265412965      -16.2666127531
 H        -3.6340269700        5.7252330855      -16.6210142438
 H        -3.3219306970        5.1971572167      -15.0778430510
 H        -3.5623085822        8.9357049727      -15.0122545853
 H        -4.5833411033        7.4828591366      -14.6066390323
 H        -4.5736901727        8.1554586750      -16.1755610530
 Na        0.7161818613        5.2943904362      -14.6913433490
 Na       -6.6934912642       -4.8896746703       -7.8809521368
