232

 C        -2.5262293906        7.7649398658      -12.8454018690
 C        -1.8807504798        7.0336275248      -13.9929256050
 O        -0.8803612925        6.3834751662      -13.7436709499
 C        -2.4841221887        7.1587734400      -15.3824483677
 C        -1.5937229784        7.9207318586      -16.4113168792
 O        -1.0254589513        8.9387485828      -16.0582346668
 C        -1.7010421286        7.7091847742      -17.9485677202
 C        -0.3978277968        7.1314507353      -18.6456660036
 C         0.3509282065        5.9792873758      -18.0814628280
 O         0.0336533280        5.2448206465      -17.1718194191
 C         1.7789737451        5.7581659651      -18.5115881151
 C         2.7667777782        6.5607695210      -17.4363780201
 O         2.3600467141        6.6343807240      -16.3112054695
 C         4.1653432721        7.0000353456      -17.8699457396
 C         5.0596531119        7.1390911007      -16.6317562625
 C         6.5565563381        7.1156110643      -17.0452129178
 O         6.8259835186        7.8194459203      -17.9776563072
 C         7.6645398275        6.3914091582      -16.2227477296
 C         7.4089727578        4.8412062983      -16.3230504431
 O         6.4141399037        4.3751374629      -16.8521282023
 C         8.4950777478        3.9761469424      -15.6825571772
 C         8.1823088349        2.4157262492      -15.8277956505
 C         7.6762295616        1.7690565985      -14.5322558667
 O         7.9318469468        2.2741203090      -13.4494505043
 C         6.7594613136        0.4710637008      -14.5867919094
 C         5.3023005934        0.9679190593      -15.0447766987
 O         4.6067290574        0.3146168396      -15.7536359259
 C         4.8710340013        2.4291658661      -14.5400960180
 C         3.8592678509        2.2513135549      -13.2878888594
 C         2.6713814891        3.2970304734      -13.2824636211
 O         2.7721517086        4.1935266041      -14.0777615871
 C         1.5392820806        3.1175806284      -12.2307836303
 C         0.1565321982        2.6743302504      -13.0091686395
 O         0.0367414423        3.0413158645      -14.1517519336
 C        -0.9556074110        1.7297263020      -12.3110861168
 C        -2.2468131804        1.6220216501      -13.0973999075
 C        -3.4323084431        1.4997641918      -12.1706381324
 O        -3.9619979718        2.4916118320      -11.7272005949
 C        -4.0472119520        0.0134510958      -11.7025876464
 C        -4.2507186715       -0.0361655137      -10.2076121220
 O        -3.3666949858       -0.2796981179       -9.4140179829
 C        -5.7071859095       -0.0568148803       -9.5633929159
 C        -5.6409344389       -0.3061580147       -7.9650042816
 C        -5.9998234380       -1.7286613274       -7.5761444187
 O        -6.4352134132       -2.5898190994       -8.3282994719
 C        -5.6635549869       -2.1834035390       -6.0564812969
 C        -4.4744525943       -3.2305169400       -6.0485207375
 O        -4.6867368444       -4.2080342656       -6.6870651392
 C        -3.0511439215       -2.9682958354       -5.4056758790
 C        -2.4949252298       -4.3968974677       -5.1806961458
 C        -3.3350750426       -5.0646403516       -4.1532652052
 O        -4.1988393199       -4.5752466341       -3.4722797945
 C        -3.0331201067       -6.6441260391       -4.0032657041
 C        -3.4296927218       -7.4356107162       -5.2836223473
 O        -2.8156630577       -7.2294264346       -6.3149682112
 C        -4.5693143507       -8.5098135725       -5.2728229229
 C        -4.9053143952       -9.1472491615       -6.6252325316
 C        -5.5765681689       -8.2035140786       -7.5644425264
 O        -6.2937695823       -7.3641580669       -7.0499779603
 C        -5.2480732684       -8.4374960815       -9.1200385832
 C        -5.9556597175       -7.2660468255       -9.9610117165
 O        -5.5573149377       -6.1139230086       -9.9673248647
 C        -7.2929741604       -7.6116894248      -10.6459837795
 C        -8.0349933307       -6.3870151042      -11.1987273625
 C        -8.9200566281       -5.6102890188      -10.1995236082
 O        -8.6600666732       -4.4269658946      -10.0575919433
 C       -10.1194677530       -6.1829012807       -9.4539658563
 C        -9.9064443907       -6.1376751984       -7.8453120861
 O        -8.8621699385       -5.7112423660       -7.3488830192
 C       -10.9805123260       -6.6613087699       -7.0181556343
 C       -10.4990983755       -6.8200024751       -5.5885621501
 C       -11.3566494256       -7.7249399995       -4.7658663461
 O       -12.5785519648       -7.5657764050       -4.8242891448
 C       -10.7731337972       -8.7214086455       -3.7954134384
 C       -11.1877234095       -8.4920234998       -2.2495793634
 O       -10.2844467755       -8.7541567700       -1.4226731470
 C       -12.5246648591       -7.8883182852       -1.8381904577
 C       -13.1545396515       -8.5329112266       -0.6277086985
 C       -13.2179454781      -10.0814883411       -0.7007506629
 O       -13.1115296867      -10.6816576944       -1.7716339273
 C       -13.6526092758      -10.8364890884        0.6020789810
 C       -12.3183571153      -11.2739730754        1.5045885202
 O       -11.4953345343      -12.0102769423        1.0358199017
 C       -12.1807884425      -10.5986679357        2.9105838457
 C       -14.6530434620      -10.0726436011        1.5674150555
 C       -14.2284097107      -12.2286125419        0.3004326078
 C       -11.4329333192      -10.1062982242       -4.2575453348
 C        -9.2296376466       -8.8686406317       -4.0817422211
 C       -11.1867821382       -5.0612064037       -9.8075403129
 C       -10.6346459483       -7.4969976048       -9.9290335951
 C        -3.7129119328       -8.3271124262       -9.3387623130
 C        -6.0384144346       -9.7702513361       -9.4924033618
 C        -1.4579875492       -6.9508277641       -3.7161355930
 C        -3.7651048893       -7.2475479163       -2.7851409765
 C        -5.2853676539       -0.9544109922       -5.0466751002
 C        -6.8477413588       -2.9474474227       -5.4819640327
 C        -5.3313285824       -0.4073665222      -12.5399314164
 C        -3.0037662725       -0.9970240561      -12.1520831333
 C         1.9487067381        2.0660218632      -11.1914993686
 C         1.2610981432        4.4215285891      -11.4796024450
 C         7.2118508119       -0.4512709885      -15.6640814584
 C         6.6271686565       -0.1267961738      -13.1800461128
 C         9.0449208944        6.9221806128      -16.6265496871
 C         7.3500065597        6.6784588748      -14.7097161491
 C         2.2526667483        4.3124834025      -18.3745365273
 C         2.1548221978        6.2785090422      -19.9384837978
 C        -2.7876039547        5.6400293668      -15.8782881131
 C        -3.7001413003        8.0729584866      -15.4647104889
 H        -1.9833474680        7.3847247748      -11.9977148688
 H        -3.5745548403        7.5776940001      -12.7498266919
 H        -2.4064475849        8.8439442803      -12.8357637993
 H        -1.6777829717        8.6978255804      -18.3888423174
 H        -2.6545862422        7.2269020697      -18.3600042829
 H         0.4309312156        7.8155663275      -18.5673657238
 H        -0.6573604917        6.9897304985      -19.6684369364
 H         4.1300265631        7.8578350190      -18.4720375275
 H         4.6254435028        6.3658270026      -18.5963749167
 H         4.8574687773        6.3922254730      -15.8611558242
 H         4.8779949015        8.1202107977      -16.1650740049
 H         8.5074460707        4.2548975544      -14.6154426771
 H         9.4451327301        4.1416096210      -16.1539386405
 H         9.0529753372        1.7788398478      -16.2239029481
 H         7.3638168931        2.4177330779      -16.5370942528
 H         4.2723371551        2.8705091513      -15.3602297284
 H         5.7363536974        3.0481594838      -14.2282233149
 H         4.5040427226        2.5790301153      -12.3765865004
 H         3.6255965599        1.2452930468      -13.0421676085
 H        -1.2623543160        2.2694703982      -11.3522212052
 H        -0.5699475312        0.7613769426      -12.1797778199
 H        -2.2616639318        0.9598736943      -13.9621791453
 H        -2.4849522324        2.4650892934      -13.6724825453
 H        -6.3033878222       -0.8677614696      -10.0830931326
 H        -6.1316686271        0.9006001370       -9.8150495691
 H        -6.3131880362        0.3754307306       -7.5407840961
 H        -4.5146524768       -0.0896578049       -7.6584925492
 H        -3.2743646489       -2.4997215723       -4.4876081606
 H        -2.4209019537       -2.3239298252       -6.0349175715
 H        -1.4750103576       -4.5235876941       -4.8499327634
 H        -2.7569139476       -5.0243995855       -6.1044881101
 H        -5.4877225248       -7.9411111405       -4.9106242832
 H        -4.1843332667       -9.2418330634       -4.4520071718
 H        -5.5487596033      -10.0566872992       -6.4367921189
 H        -4.0671789131       -9.6817380462       -7.1026871045
 H        -7.8747714205       -8.2706304750      -10.0528747385
 H        -6.9616411418       -8.3007416715      -11.4479022144
 H        -8.6561928052       -6.5380368017      -12.0054016268
 H        -7.2845635973       -5.7209107325      -11.5283640499
 H       -11.3644685279       -7.5637793242       -7.4635226920
 H       -11.7937536148       -5.9593188822       -7.1162779634
 H       -10.4281073929       -5.8882767665       -4.9650231975
 H        -9.4385928004       -7.1580314884       -5.6480819516
 H       -13.2439537591       -7.7011364032       -2.5897800005
 H       -12.2878236043       -6.8021103060       -1.5913085338
 H       -14.1858511818       -8.0742868458       -0.5217519025
 H       -12.6891785808       -8.2541946959        0.3245805998
 H       -12.1824286798       -9.4845528468        2.8826419320
 H       -11.2721355903      -11.0026190327        3.3034026822
 H       -13.0534959049      -10.7802443249        3.6203273338
 H       -14.9501320899      -10.6824001265        2.4181724717
 H       -15.5031417667       -9.9482522193        0.7725485619
 H       -14.4379437716       -9.0550542095        2.0211995406
 H       -14.3792369834      -12.8313917144        1.2273753046
 H       -13.5274090922      -12.8013318597       -0.3136276032
 H       -15.0983398259      -12.0153735580       -0.2452512193
 H       -11.3291312734      -10.9631840694       -3.5715533590
 H       -10.9146088310      -10.4045891721       -5.2318672053
 H       -12.4942988329      -10.1031869303       -4.3805895128
 H        -8.6938302675       -7.9607297219       -3.8342274442
 H        -9.0783719740       -9.2653959437       -5.1039581584
 H        -8.8780939225       -9.5426042602       -3.3638875149
 H       -10.8482509433       -3.9993979072       -9.7300629067
 H       -12.0223830991       -5.3056273433       -9.1884792955
 H       -11.5662481205       -5.3015625487      -10.8063368613
 H       -10.4469093830       -7.5546532821      -10.9983939389
 H       -11.6573107899       -7.6531089079       -9.8454688400
 H       -10.2382363104       -8.3974914428       -9.4035433205
 H        -3.1244541578       -9.0457633296       -8.8192355570
 H        -3.4613712046       -7.2768040548       -9.0458004399
 H        -3.4729440250       -8.5898773148      -10.3636267753
 H        -5.4271159180      -10.6049490333       -9.1662723164
 H        -6.2309279302       -9.8908904043      -10.6035030390
 H        -6.9539137029       -9.8294377106       -9.0147933836
 H        -1.1245353730       -6.5383788243       -2.7792972619
 H        -0.8773293804       -6.4219133566       -4.4689951885
 H        -1.2746957718       -7.9603488224       -3.8180288636
 H        -3.3927226055       -6.7008632625       -1.9262888257
 H        -3.5039980152       -8.2915551018       -2.6635913225
 H        -4.8074283198       -7.1895973254       -3.0141450508
 H        -5.2100405870       -1.3373777096       -4.0577421147
 H        -6.0514852320       -0.2040458098       -4.9853574500
 H        -4.3222924979       -0.4901583789       -5.2731153896
 H        -7.3240532953       -3.6240967786       -6.2244244261
 H        -7.6009326303       -2.1717959129       -5.1807724445
 H        -6.5678153079       -3.5304776623       -4.6191601436
 H        -5.7397105038       -1.2589557404      -12.0973158722
 H        -5.0320868292       -0.6624732656      -13.5381288635
 H        -5.9876631303        0.4864561583      -12.5732819455
 H        -3.3216350715       -2.0066963134      -11.9413292275
 H        -1.9783754163       -0.8275840888      -11.8111556519
 H        -2.8930284201       -0.7894558951      -13.2215710395
 H         2.2090256403        1.0188204937      -11.5605663949
 H         1.4052397796        1.9910438043      -10.3103757751
 H         2.9558248681        2.4314176031      -10.8733534893
 H         0.2008845246        4.4603512740      -11.1116721559
 H         1.2758157783        5.2434851469      -12.1695521386
 H         2.0452748541        4.5599443238      -10.7835796351
 H         6.9568352267       -0.0059644728      -16.6772732858
 H         6.8220320296       -1.4603208429      -15.6430154892
 H         8.2586770080       -0.5854509820      -15.6404172309
 H         7.4683000843       -0.7345435105      -12.8466263982
 H         5.7486514171       -0.6630450608      -13.0857203221
 H         6.6521038941        0.6850580125      -12.4081432783
 H         9.8581396162        6.2423539637      -16.2946997507
 H         9.2178989530        7.9214102759      -16.3789749508
 H         9.1625191698        6.7873572993      -17.7588320505
 H         6.2296155397        6.4438688465      -14.4170939133
 H         7.5486441633        7.7851720219      -14.5432338137
 H         7.9593499705        6.1665499855      -14.0004778633
 H         1.5260546772        3.6472141319      -18.7452949870
 H         2.4343684728        4.0088801005      -17.2691641304
 H         3.1334166928        4.0486702886      -18.9214311930
 H         2.4548472493        7.2913564244      -19.8098794410
 H         1.2788755907        6.2544658580      -20.5805800998
 H         2.8026472702        5.6320771363      -20.3794214189
 H        -1.9818358925        5.2196093659      -16.4558679489
 H        -3.6339379171        5.4781774500      -16.5699449635
 H        -2.9234048425        4.8641513211      -15.1327900165
 H        -3.4138112643        9.1522524282      -15.3506184165
 H        -4.5295913582        7.7313806499      -14.8571933427
 H        -4.1684011134        8.0511460654      -16.4476007792
 Na        0.7178549311        5.2855260845      -14.6620847681
 Na       -6.6517492601       -4.9621580216       -8.0047270375
