232

 C        -2.6523543916        7.7636118226      -12.8166178207
 C        -1.9517764433        6.9639809936      -13.9947321270
 O        -0.9953609765        6.2466750445      -13.7451822710
 C        -2.4898287604        7.1588193560      -15.4803747593
 C        -1.3841039189        7.9191125025      -16.3950056458
 O        -0.7889932695        8.9010964354      -15.9334175382
 C        -1.6383385600        7.6511459358      -17.8756759635
 C        -0.3227398350        7.2827324175      -18.6534714418
 C         0.4274318848        6.0368605512      -18.0419452928
 O        -0.0134204965        5.3215701965      -17.1325515782
 C         1.8907012894        5.8165323845      -18.4799871581
 C         2.6580486228        6.6113402570      -17.3275380539
 O         2.2031330350        6.7469283125      -16.2158578849
 C         4.0103163323        7.1069756001      -17.7027398002
 C         5.0185262170        7.0946196648      -16.5991737564
 C         6.5257424822        7.2750109437      -17.1080458383
 O         6.8200860684        7.9190221825      -18.0900331316
 C         7.6267671306        6.4318760075      -16.2467132330
 C         7.5159115458        4.8035159659      -16.3693276642
 O         6.4965179480        4.2864375734      -16.8441486924
 C         8.5290557841        3.9040869119      -15.6993378763
 C         8.0999237960        2.3732053828      -15.7884559664
 C         7.6922342813        1.7658172469      -14.4338652847
 O         8.1291097712        2.1368850205      -13.3502164650
 C         6.7649913709        0.4752823376      -14.6693170858
 C         5.3037371463        1.0319495941      -15.0798268954
 O         4.6067554285        0.3854538954      -15.8212735729
 C         4.8178556413        2.3523401153      -14.5806878402
 C         3.8956888067        2.2441769999      -13.3834172387
 C         2.7291487958        3.2573386894      -13.3858957403
 O         2.7350135149        4.2458635714      -14.1390511639
 C         1.5967571478        3.0132783479      -12.2996183800
 C         0.2373318180        2.5676889036      -13.1049900536
 O         0.1377055407        3.0095354169      -14.1961789919
 C        -0.8967501447        1.9309217536      -12.2975114099
 C        -2.2716954147        1.6420688404      -13.0873267761
 C        -3.5836937676        1.5153368698      -12.1693051012
 O        -4.1980921666        2.4520990556      -11.7248250214
 C        -4.0721414253        0.0802855846      -11.7525639509
 C        -4.3656711578       -0.0724982762      -10.1158681527
 O        -3.3702621250       -0.4081036508       -9.5075793099
 C        -5.7957331595       -0.0018621340       -9.5067460786
 C        -5.6688209830       -0.3142378040       -8.0176698509
 C        -5.9262447633       -1.7073851264       -7.5939272659
 O        -6.3289889198       -2.5986741513       -8.3812864614
 C        -5.7071354985       -2.1833579039       -6.0865403142
 C        -4.5580872775       -3.1666018974       -6.1575303048
 O        -4.6644102624       -4.2504264803       -6.7280635717
 C        -3.2053674912       -3.0236508314       -5.4298698287
 C        -2.5335932339       -4.3796798291       -5.1596414549
 C        -3.3739083140       -5.2248713708       -4.1728837633
 O        -4.2753030347       -4.7454971740       -3.5393334019
 C        -3.0836759898       -6.7008913927       -4.0253965542
 C        -3.4829152544       -7.4468640431       -5.3043219577
 O        -2.9160269628       -7.2598904762       -6.3958724696
 C        -4.5795238241       -8.6270685411       -5.1458462753
 C        -4.9027622090       -9.1631900483       -6.4905155431
 C        -5.5109783652       -8.2192806599       -7.5409461267
 O        -6.2645153069       -7.2688340563       -7.2028508611
 C        -5.2991873673       -8.4204753817       -9.0186007342
 C        -5.9855002790       -7.3202360478       -9.7617675505
 O        -5.4567054875       -6.2307986164       -9.7891806396
 C        -7.2886216845       -7.6134386238      -10.6108457164
 C        -7.9760801948       -6.3855372207      -11.1911282021
 C        -8.7872054312       -5.5852370324      -10.1622481441
 O        -8.5075681192       -4.4014495287       -9.9491211194
 C       -10.1191499710       -6.1736327411       -9.5179230329
 C        -9.9005891594       -6.2056033550       -7.8811081768
 O        -8.8845835358       -5.6785954540       -7.3726314355
 C       -11.0077426421       -6.8133684342       -7.0382485249
 C       -10.6302993883       -6.7541705958       -5.5651861551
 C       -11.4884814037       -7.6896442683       -4.6819820296
 O       -12.6832219607       -7.5556383284       -4.6526507195
 C       -10.7635528995       -8.8299384843       -3.8444888194
 C       -11.0424549312       -8.5202983367       -2.2742142559
 O       -10.1543930521       -8.7377677454       -1.4924983614
 C       -12.4548899308       -8.0052450060       -1.9230977433
 C       -12.9701150003       -8.5209164219       -0.5702625092
 C       -13.2844452150      -10.0059151383       -0.6758474325
 O       -13.2680744292      -10.5588236891       -1.7627755225
 C       -13.6229246535      -10.8545061377        0.6554861775
 C       -12.2667333451      -11.1668664805        1.5734871684
 O       -11.5612255661      -12.0517990174        1.2385217744
 C       -12.2037848343      -10.6521364652        3.0106839574
 C       -14.5618797356       -9.9884176242        1.4862297117
 C       -14.3152212135      -12.1582308429        0.2270477772
 C       -11.4731539698      -10.1932370221       -4.1885790694
 C        -9.2563425204       -8.8920228536       -3.8707653259
 C       -11.1279613954       -4.8998336621       -9.6389505193
 C       -10.6515944639       -7.4760172564       -9.9855882767
 C        -3.7650877197       -8.3020434910       -9.2968240230
 C        -5.8330288797       -9.7676300419       -9.4924648229
 C        -1.5196158623       -6.7850595203       -3.7297107505
 C        -3.9537260750       -7.1456213472       -2.7163007620
 C        -5.2559394146       -0.9242539037       -5.1811342311
 C        -6.9492109755       -2.8148094705       -5.4373974679
 C        -5.3898132595       -0.2450524053      -12.5322202973
 C        -2.9862613836       -1.0514971093      -11.9865380680
 C         1.9786278794        2.0368628993      -11.1186801653
 C         1.1917238892        4.3615057711      -11.6510047507
 C         7.2552205404       -0.4316821987      -15.8354426594
 C         6.6656426025       -0.2813945200      -13.3052766126
 C         9.0209092400        6.9136800179      -16.6155853367
 C         7.4481808539        6.7838717993      -14.7426884510
 C         2.2463008373        4.3152872769      -18.3918303435
 C         2.2424929397        6.4205371847      -19.9892341029
 C        -2.7764018364        5.6683837015      -15.8790330230
 C        -3.7048875599        8.0160509787      -15.5355985866
 H        -2.4350702421        7.4773538917      -11.8054326759
 H        -3.7271965433        7.7572090682      -12.9946204273
 H        -2.4205581101        8.8092020728      -12.9479731571
 H        -2.1526924806        8.4704774001      -18.3926283095
 H        -2.2448183453        6.7957964439      -17.9973998725
 H         0.5498856381        7.9381032079      -18.6532613326
 H        -0.6578011669        7.1017344153      -19.6813871503
 H         3.9712965414        7.9948088209      -18.2943053183
 H         4.4449798001        6.4596550839      -18.4859182963
 H         4.9503242058        6.1712268800      -15.9744987645
 H         4.8345761429        7.8903136015      -15.8689413798
 H         8.6450981182        4.1678735158      -14.6675072543
 H         9.4311130631        3.9988688410      -16.2201109311
 H         8.9570606102        1.6772510485      -16.0993447326
 H         7.2662221245        2.3344820382      -16.5165854476
 H         4.1876801385        2.8436748945      -15.3751339792
 H         5.7183200346        2.9239348208      -14.3184673007
 H         4.5501285102        2.1586799249      -12.4200748763
 H         3.3955748651        1.3043454601      -13.4142734989
 H        -1.1211983167        2.5704797139      -11.4954444214
 H        -0.5275448107        0.9286937787      -12.0374898888
 H        -2.2865582283        0.8011061142      -13.8111979660
 H        -2.4890318199        2.3340354351      -13.8217557140
 H        -6.3961723725       -0.7652925560      -10.0466574157
 H        -6.2087864255        0.9612022517       -9.7483909538
 H        -6.5329134673        0.3558372521       -7.5497218377
 H        -4.6106956467        0.0325792366       -7.6993392340
 H        -3.3886838879       -2.4652680522       -4.5005433377
 H        -2.4899656495       -2.4013963554       -6.0637508056
 H        -1.4870427194       -4.2105972730       -4.6645441598
 H        -2.4623557475       -4.9252953765       -6.1244526361
 H        -5.5282201363       -8.2641768681       -4.7489235603
 H        -4.0746261099       -9.2325232026       -4.4565057512
 H        -5.6656012865      -10.0740592926       -6.2912683205
 H        -4.1328782840       -9.7640012816       -6.9454198120
 H        -8.0323310766       -8.2145812056       -9.9702646811
 H        -6.9984019251       -8.3131121559      -11.3556448898
 H        -8.7677471722       -6.5640311033      -11.9480694248
 H        -7.2371102171       -5.7527927541      -11.7269901604
 H       -11.2595296734       -7.7643725492       -7.4821988083
 H       -11.9427380955       -6.2430768684       -7.1607389077
 H       -10.5886247170       -5.6893429529       -5.1996723443
 H        -9.5719108652       -7.0998743479       -5.4718069463
 H       -13.2145984936       -8.0987672682       -2.6469294191
 H       -12.4247299248       -6.9344917566       -1.9211169814
 H       -13.9022951721       -7.9307185529       -0.3308673244
 H       -12.3346930227       -8.3228196373        0.3197185724
 H       -12.6432044156       -9.6543203818        3.1413706673
 H       -11.1562417993      -10.6671450035        3.2811299781
 H       -12.7635384646      -11.2671161907        3.6894417937
 H       -14.4815382857      -10.1346608371        2.5648659974
 H       -15.6042325157      -10.2037827176        1.1033079797
 H       -14.4260570181       -8.8420899591        1.4158502156
 H       -14.4576634589      -12.9776748241        0.9631502272
 H       -13.7988595703      -12.5938489615       -0.5763247320
 H       -15.2250919276      -11.6564195943       -0.1455422125
 H       -11.3542917759      -11.0123792673       -3.5175230251
 H       -11.0210772075      -10.5022183402       -5.1677116661
 H       -12.5180301544      -10.1272963618       -4.2637866967
 H        -8.9170684626       -8.0689744768       -3.2787609652
 H        -8.8520254757       -8.8136020239       -4.9028478163
 H        -8.9072078957       -9.7916149029       -3.3177139840
 H       -10.6038592673       -4.0968268656       -9.1338434716
 H       -12.1420030222       -5.1069161614       -9.2219645212
 H       -11.2535243940       -4.6390694053      -10.6775991520
 H       -10.6095160393       -7.4647379531      -11.0643437668
 H       -11.6900395233       -7.6028610744       -9.7309417208
 H       -10.2323413394       -8.3160489442       -9.5923488449
 H        -3.3124683223       -9.0706712962       -8.7461114006
 H        -3.4510232701       -7.3270992964       -8.9477646686
 H        -3.4439490197       -8.6109020233      -10.2910316905
 H        -5.4125987376      -10.5022390741       -8.8661087115
 H        -5.5482120402      -10.0204222052      -10.5036988191
 H        -6.9988011051       -9.8549098595       -9.4413125695
 H        -1.2975182976       -5.9778177819       -2.9888383067
 H        -0.8452590037       -6.6860357697       -4.5469246103
 H        -1.4319883159       -7.8173221185       -3.2702632242
 H        -3.7383322799       -6.4499992827       -1.9286291723
 H        -3.7236742321       -8.1182536911       -2.3624379967
 H        -4.9051607737       -7.1903118433       -3.1048300222
 H        -5.2072042468       -1.0757227857       -4.0696690181
 H        -5.9699325910       -0.1023331452       -5.3430282977
 H        -4.2810836878       -0.5326802686       -5.5502967222
 H        -7.5886791917       -3.4292733857       -6.1365490901
 H        -7.5366794038       -2.0451913371       -4.9052589369
 H        -6.5661822331       -3.5415422124       -4.6982711568
 H        -5.8153707887       -1.0156997081      -11.9347149778
 H        -5.2493996467       -0.7142326494      -13.5351744381
 H        -5.9407376806        0.6579488524      -12.6228032157
 H        -3.4820529005       -2.0224554152      -11.9015206037
 H        -2.2223936921       -0.9736169456      -11.1983803676
 H        -2.3766913802       -0.9723417981      -12.8765891901
 H         2.1398623269        0.9721097436      -11.2970844953
 H         1.3964141741        2.1441206857      -10.1035711381
 H         2.9650526819        2.3921860967      -10.8186856369
 H         0.1224078794        4.3185222414      -11.3564855661
 H         1.1937675086        5.1996073641      -12.3353321081
 H         1.9167770163        4.5762095232      -10.8620038425
 H         7.0718007320       -0.0360619854      -16.8531515658
 H         6.9094723844       -1.4815047352      -15.8258332787
 H         8.3320583763       -0.4975699830      -15.7411776843
 H         7.6066828489       -0.7511371318      -13.0180185685
 H         5.8770114733       -0.9871082245      -13.3505228510
 H         6.5156515133        0.3922516931      -12.3979835217
 H         9.7948666213        6.2829383886      -16.1386565890
 H         9.1436227109        7.9640177244      -16.3249928428
 H         9.2832829685        6.8041576856      -17.6381392920
 H         6.5061901959        6.5050373631      -14.3317710707
 H         7.6421886882        7.9137639922      -14.5715383981
 H         8.1865677355        6.2368946330      -14.1237519908
 H         1.7110863708        3.7562889432      -19.1996156119
 H         1.9407781194        3.8907490813      -17.4527415315
 H         3.2627810405        4.0819247869      -18.4997182712
 H         2.2791274161        7.4933185817      -19.9714595505
 H         1.5323522501        6.0539217205      -20.7173377182
 H         3.1823877282        5.9341633815      -20.3490412947
 H        -1.9578212472        5.2166558356      -16.4473153887
 H        -3.6154560569        5.4241186267      -16.5288298357
 H        -2.8567391645        4.9121010120      -15.0698028794
 H        -3.4708836599        9.0882754017      -15.3297101258
 H        -4.5636710628        7.6111637171      -15.0361921731
 H        -4.0696517118        8.0745051725      -16.5832561133
 Na        0.8526199154        5.2535362672      -14.8944188023
 Na       -6.6023575704       -5.0536377173       -8.1666081459
