232

 C        -2.7220955275        7.7266932048      -12.8141310616
 C        -2.0232110463        6.9191861319      -13.9535442058
 O        -1.0564522751        6.1889881585      -13.7633698509
 C        -2.5222170949        7.0979934326      -15.4569028497
 C        -1.3635821257        7.7116876476      -16.3388537273
 O        -0.3847876403        8.2829386050      -15.8751204702
 C        -1.5955586947        7.6914881763      -17.9403658358
 C        -0.2590137070        7.5656057994      -18.6163077134
 C         0.4141872620        6.2063781742      -18.0836317306
 O        -0.1605890710        5.5122795220      -17.3072266803
 C         1.9666024089        5.9478681203      -18.4232413518
 C         2.7537426646        6.7670248980      -17.2700992063
 O         2.3400191745        6.8434037276      -16.1299467884
 C         4.1422903761        7.4285360562      -17.5178545192
 C         5.1156365861        6.9749489357      -16.3970432390
 C         6.5586575917        7.0670630087      -16.9896252917
 O         6.7932295977        7.7768536919      -17.9303574067
 C         7.7240831814        6.4332342637      -16.1418310136
 C         7.4933072850        4.9326756421      -16.3341653588
 O         6.5225952427        4.5025425155      -16.9060398621
 C         8.5104250481        4.0237157073      -15.7243226075
 C         8.2299759317        2.5254903833      -15.8155899081
 C         7.8006723459        1.6576656587      -14.5385388559
 O         8.2839776118        1.8878327394      -13.4563587231
 C         6.8208571954        0.4343393012      -14.8324119337
 C         5.4382559163        0.9970624832      -15.2204075929
 O         4.6607607887        0.3824541074      -15.9155121356
 C         4.8680886476        2.4222817497      -14.6045536665
 C         3.7410116057        2.0232583255      -13.4898428770
 C         2.6736103957        3.1495837213      -13.4286512096
 O         2.7266114270        4.0875378255      -14.1562732835
 C         1.4027118849        3.0311022330      -12.3530213109
 C         0.1115173379        2.7064959762      -13.1060169137
 O         0.0245727148        2.7982955574      -14.3350002906
 C        -0.9395313840        2.0580512040      -12.1726623121
 C        -2.2632075069        1.8188877885      -12.8296513530
 C        -3.4906239542        1.4126101144      -12.0469301548
 O        -4.3013461691        2.2825237071      -11.8320196764
 C        -3.9577617932       -0.0008514988      -11.6196196974
 C        -4.2620642459       -0.1327081685      -10.1386339192
 O        -3.4236493286       -0.4076468324       -9.2972438115
 C        -5.8462169237        0.0305056983       -9.6079663298
 C        -5.9244630411       -0.1732673906       -8.0916898268
 C        -5.9133273691       -1.7210171927       -7.7540027940
 O        -6.2134190850       -2.5349335599       -8.5821084491
 C        -5.6810751432       -2.0567113047       -6.2424514734
 C        -4.6872895947       -3.2635196454       -6.2694389088
 O        -4.9214300329       -4.2997021545       -6.8612300173
 C        -3.3543523492       -3.0953443356       -5.5209085093
 C        -2.6378667293       -4.3911816743       -5.0828501827
 C        -3.5635215237       -5.1822591141       -4.1796600584
 O        -4.6202100680       -4.7120471673       -3.8625927219
 C        -3.1822289109       -6.6773429495       -3.9112860810
 C        -3.6916482050       -7.4907229913       -5.1893195036
 O        -3.0834564649       -7.3191859275       -6.2036287553
 C        -4.7638488253       -8.7451656799       -5.0837245187
 C        -5.1181882371       -9.3188338077       -6.4452666320
 C        -5.4635840542       -8.2002256218       -7.4260032435
 O        -6.0377766243       -7.2527775775       -7.0019242905
 C        -5.1834937510       -8.5107694636       -9.0323574105
 C        -5.9582551926       -7.4520011961       -9.8106739549
 O        -5.4817997484       -6.3102921979       -9.7621866009
 C        -7.3214848188       -7.6885842344      -10.4976914390
 C        -7.9982243858       -6.4491210436      -11.1292071036
 C        -8.6732758290       -5.5255539119      -10.0525551686
 O        -8.0993213340       -4.5111985528       -9.6886660012
 C       -10.0579286819       -5.7994298647       -9.4249600685
 C        -9.7347615856       -6.1911448076       -7.8162120922
 O        -8.7481086120       -5.7202141261       -7.3237390858
 C       -10.7416442059       -7.0143941776       -7.0414979432
 C       -10.7502997046       -6.6895303637       -5.5634851217
 C       -11.4258325719       -7.7483925201       -4.6645420840
 O       -12.6430387120       -7.6315847979       -4.5520739338
 C       -10.7500334573       -8.8172106265       -3.8605989632
 C       -11.0410032535       -8.4612171454       -2.2624196925
 O       -10.1269282173       -8.6398154217       -1.4379923781
 C       -12.4197145314       -8.0483933196       -1.7439553244
 C       -12.6042338431       -8.6279142875       -0.3551208365
 C       -13.2557041934       -9.9867214453       -0.4215516580
 O       -13.5111797326      -10.4377024910       -1.5133357002
 C       -13.6744492720      -10.7567471122        0.8943072200
 C       -12.4321137510      -11.1719795206        1.6820657944
 O       -11.7551672249      -12.0635001023        1.1532753789
 C       -12.1531790092      -10.5337190721        3.0788889533
 C       -14.7489253301       -9.8911482573        1.5396005696
 C       -14.3504223961      -12.0609454826        0.2826346429
 C       -11.4672876401      -10.2364396014       -4.0986534235
 C        -9.2334444827       -8.9940704218       -4.1751111988
 C       -11.2118821698       -4.7660880966       -9.5109172571
 C       -10.6767675417       -7.1061572716      -10.2467451006
 C        -3.6237051807       -8.3059173097       -9.2191937206
 C        -5.4365634178       -9.9808911416       -9.3247641006
 C        -1.6246063974       -6.8888173314       -3.6407689917
 C        -3.9106994602       -7.1666013412       -2.6801948522
 C        -5.1993443767       -0.9072086396       -5.3746579928
 C        -7.0598804858       -2.6064919253       -5.5685417799
 C        -5.2965026289       -0.1023098224      -12.5338329576
 C        -3.1453038776       -1.1368629591      -12.1458339462
 C         1.8035125881        2.0060160790      -11.2808336668
 C         1.1868867621        4.4637247196      -11.7999286958
 C         7.3917411050       -0.3745659846      -15.9908270069
 C         6.6322031025       -0.4306469874      -13.6027185752
 C         9.0904391082        6.8082241277      -16.8712167820
 C         7.5377645513        6.9194375495      -14.7104886680
 C         2.3261693451        4.3893465201      -18.3579122013
 C         2.3073678607        6.5463587793      -19.7973778676
 C        -2.8962884982        5.6684905227      -15.8937627760
 C        -3.8247134214        8.0226786863      -15.5393741452
 H        -2.3680979337        7.4118795235      -11.7983530355
 H        -3.8208171021        7.7043199757      -12.8222938128
 H        -2.5025804217        8.8140105637      -13.0178525013
 H        -1.9040077461        8.6817563547      -18.2521875619
 H        -2.3673810976        6.9689619581      -18.3674511505
 H         0.4326041287        8.3467229931      -18.2388805759
 H        -0.3034577636        7.6329432150      -19.7291345706
 H         3.9237522001        8.5511898179      -17.5210442007
 H         4.6402433575        7.3570807734      -18.5011783678
 H         4.8786502335        5.9561820952      -16.1059876379
 H         5.0104833932        7.4889327717      -15.4161416643
 H         8.5757760887        4.2228445125      -14.6230202352
 H         9.5286055637        4.2547055741      -16.1871957002
 H         9.1054723075        2.0414819746      -16.1446027368
 H         7.4267790537        2.4295586160      -16.5396281925
 H         4.3266170169        2.8869491090      -15.3786517179
 H         5.5834722735        3.1134957847      -14.1613922124
 H         4.2665149300        1.9906786896      -12.5816289834
 H         3.2485161888        1.0121411818      -13.6437636312
 H        -1.1102806745        2.8473527114      -11.3616985647
 H        -0.6002904478        1.0746156246      -11.9254054378
 H        -2.2759256730        1.0806085652      -13.6366589419
 H        -2.5561007476        2.7264304452      -13.4722391968
 H        -6.5769934252       -0.5742603529      -10.1543376479
 H        -6.1685592455        1.0772059868       -9.8660353045
 H        -6.7136324887        0.3206773716       -7.7554122323
 H        -5.0525246777        0.2769517364       -7.6806232323
 H        -3.5550426583       -2.5433992558       -4.5706027817
 H        -2.7622277638       -2.4016607749       -6.1172078147
 H        -1.7804898280       -4.1145724651       -4.5615007643
 H        -2.3813421428       -5.1122694934       -5.8791383032
 H        -5.6395841625       -8.3800056668       -4.5872614011
 H        -4.1754206288       -9.3673176194       -4.3407525084
 H        -5.8626136529       -9.9891456426       -6.3920721471
 H        -4.3335278782       -9.9895380563       -6.8263139934
 H        -7.9812239285       -8.2001125942       -9.8263852357
 H        -7.1569659087       -8.4068275063      -11.3872147370
 H        -8.6521868354       -6.8124097595      -11.9742141748
 H        -7.2508753643       -5.7889777787      -11.6481125944
 H       -10.3781328478       -8.0699035862       -7.2183055409
 H       -11.7644816034       -7.1050086373       -7.4544320920
 H       -11.1697981521       -5.7324381517       -5.3775054668
 H        -9.7373065089       -6.6079839325       -5.2430637367
 H       -13.1580531654       -8.3251460889       -2.5279136919
 H       -12.6047706969       -6.9489713640       -1.7935544928
 H       -13.0041350789       -7.9745587554        0.3777714214
 H       -11.5878123544       -8.7135680240        0.0173313001
 H       -12.8430748451       -9.7474345558        3.3513127296
 H       -11.1789251467      -10.1066348428        3.2286500014
 H       -12.2976009373      -11.3556300657        3.8088382121
 H       -15.2749203910      -10.4295915539        2.3202123266
 H       -15.4890782163       -9.6193775247        0.8060632762
 H       -14.4073933922       -9.0305135893        1.9844789324
 H       -14.6190319504      -12.6051970339        1.1836266757
 H       -13.5481621843      -12.7350263797       -0.0927023229
 H       -15.1989990026      -11.8493518730       -0.3118968454
 H       -10.9802885818      -11.0341116802       -3.5255669205
 H       -11.3085836456      -10.5072043307       -5.1305972743
 H       -12.5059237306      -10.3451614700       -3.8090044238
 H        -8.5351540460       -8.0760703650       -4.0455753569
 H        -9.2815543901       -9.0888140697       -5.2893670126
 H        -8.8680193529       -9.8686770676       -3.6537749408
 H       -11.1825888445       -3.9788069757       -8.7045820321
 H       -12.1164902029       -5.3202350102       -9.4613355308
 H       -11.1505379139       -4.2421157939      -10.4856107795
 H       -11.0097699482       -6.8016385747      -11.2684139775
 H       -11.4946285385       -7.6028206204       -9.7006412537
 H        -9.8974507718       -7.9999128439      -10.3388624796
 H        -3.0514136912       -9.1521099851       -8.7896069256
 H        -3.3973838138       -7.3551293610       -8.7280472864
 H        -3.3434835690       -8.3453964485      -10.2431757602
 H        -4.9895415435      -10.6819303754       -8.5615678351
 H        -5.0406970399      -10.3680696627      -10.3075389927
 H        -6.4423383397      -10.0988856663       -9.3671694260
 H        -1.2196399007       -5.9534440304       -3.2214256329
 H        -1.1126205749       -7.0061788826       -4.6671589087
 H        -1.4347330682       -7.7742369822       -3.0798627329
 H        -3.2729486040       -6.8265299037       -1.8817502779
 H        -3.6454031806       -8.2361963417       -2.7394974022
 H        -5.0137856511       -7.0977073644       -2.6536299440
 H        -5.0617749580       -1.3353455456       -4.3903952978
 H        -5.8574427482       -0.0103304170       -5.2950018395
 H        -4.2336720469       -0.5095663878       -5.7586457822
 H        -7.3674824195       -3.4603941219       -6.1425642403
 H        -7.8081047976       -1.8049223079       -5.5213772734
 H        -6.8888165426       -3.0353284846       -4.5987903952
 H        -5.5724147730       -1.1524910710      -12.6866369639
 H        -5.0230811506        0.2700246647      -13.5015408370
 H        -5.9966443779        0.6860397036      -12.1523156733
 H        -3.6681808283       -2.0396134790      -11.8656334288
 H        -2.1164225960       -1.1512898064      -11.8190282314
 H        -3.0964317578       -1.1109099980      -13.2503341193
 H         1.9832808005        1.0100902330      -11.7006029148
 H         1.0535542324        1.8694399878      -10.6460457456
 H         2.6037147973        2.2777444755      -10.6011929338
 H         0.4728430273        4.5571542358      -10.9643882765
 H         0.7853683646        5.1340438383      -12.5730913438
 H         2.1831406723        4.7965989237      -11.5170467874
 H         7.6411321336        0.2589190897      -16.8717322419
 H         6.5952524318       -1.0630615613      -16.2883358450
 H         8.2993745595       -0.9685961110      -15.7892674558
 H         7.6263491209       -0.5979060307      -13.1341893163
 H         6.0915599988       -1.3521231999      -13.8010828609
 H         6.1323179437        0.1040987576      -12.8146497062
 H         9.9753308964        6.5232885082      -16.3545829747
 H         9.1223298671        7.8441810495      -17.0177620713
 H         9.2169632118        6.2954089980      -17.8610871604
 H         6.7039475962        6.3306371265      -14.2629084607
 H         7.3163806863        7.9340911013      -14.6932144435
 H         8.3218666211        6.6465648912      -14.1001355270
 H         2.5369892983        3.9468694022      -19.2712732180
 H         1.4979474728        3.7446681494      -17.8953215281
 H         3.2066897775        4.2463080961      -17.6880633364
 H         2.0035797007        7.6551927248      -19.8478633031
 H         1.8066530324        5.9223830163      -20.6002126114
 H         3.3540294986        6.4391889195      -19.9882360040
 H        -2.2237036279        4.8401396152      -15.8105254527
 H        -3.0996060675        5.6245383099      -16.9884432622
 H        -3.7778553533        5.2125520133      -15.4721561298
 H        -3.8233724391        8.9852085376      -15.0437447190
 H        -4.7030207678        7.4419415468      -15.1453755884
 H        -4.0856343950        8.3068467287      -16.5409000083
 Na        0.8041924862        5.1493734549      -15.3475836709
 Na       -6.6080731117       -4.9042898814       -8.2058432175
