232

 C       -21.3590460656       -6.6794544659       -1.3803707236
 C       -20.7482709451       -5.7612095068       -2.3912929964
 O       -19.8102833845       -5.0557754524       -2.0121735275
 C       -21.5413221987       -5.4739286369       -3.7478894375
 C       -20.5079732049       -4.8999555235       -4.7444406082
 O       -20.2046160610       -3.7221322542       -4.8646436300
 C       -19.6663189978       -5.9041933108       -5.5503222188
 C       -18.4065376310       -5.3004352364       -6.1552614674
 C       -17.3890983577       -4.7275423866       -5.1338488784
 O       -17.5281897550       -4.9918797486       -3.9160991697
 C       -16.2948005798       -3.7075266203       -5.6739834032
 C       -16.1197817254       -2.6830618359       -4.4962863041
 O       -17.0060137534       -1.8680624879       -4.2691868061
 C       -14.8993006705       -2.9041543302       -3.5132820748
 C       -15.1547268193       -2.0750550013       -2.2077605916
 C       -15.8871018844       -2.7854906889       -1.0655595741
 O       -17.0965338943       -2.9681607093       -1.0524256258
 C       -15.0270722265       -3.1242099202        0.2072815761
 C       -13.8790521773       -4.0955116647       -0.4046817405
 O       -12.8369879807       -3.6997858425       -0.8499022314
 C       -14.1752615870       -5.5960397271       -0.4737874573
 C       -13.1873584404       -6.5478204578       -1.1828240457
 C       -13.2118058241       -6.3644650471       -2.7090468224
 O       -14.2793195041       -6.3095468550       -3.2830073391
 C       -11.8329739548       -6.6668474049       -3.6047930037
 C       -10.5303315936       -6.3378726517       -2.8884299316
 O       -10.5648179106       -5.9823268053       -1.7342689640
 C        -9.1278957625       -6.6016823398       -3.5106719423
 C        -8.1141110962       -5.6413083007       -2.8547975052
 C        -7.5067202549       -4.6488840541       -3.8281010419
 O        -7.8763153715       -4.8154171919       -4.9750113352
 C        -6.3684167677       -3.6299511760       -3.4179616121
 C        -5.0829506276       -4.4039289045       -3.7045953660
 O        -4.4958363653       -5.1126490990       -2.8747030053
 C        -4.7189793021       -4.7665310278       -5.1389123383
 C        -3.3118774360       -5.3055758801       -5.1945520304
 C        -2.3065245704       -4.2490460048       -4.7127661941
 O        -2.4628871786       -3.0415972197       -4.8269378613
 C        -0.9082820147       -4.8369773649       -4.3548680675
 C        -0.3184392835       -5.0366266425       -5.8317312401
 O        -0.2490304184       -6.1954563335       -6.2297333353
 C        -0.0099285744       -3.8234600315       -6.7405396608
 C         0.7953575519       -4.2960972577       -7.9977882445
 C         1.0889761365       -3.2104040056       -8.8903953498
 O         1.7377309180       -2.2410916418       -8.4914872619
 C         0.6261625885       -3.3484669274      -10.3300553513
 C         1.2339032105       -2.1672584123      -11.1724129938
 O         0.4119814079       -1.6528486518      -11.9412734713
 C         2.6553446783       -1.6816285064      -11.1880287314
 C         3.2530927858       -2.1150936138      -12.4990575146
 C         4.4412233611       -1.2148407113      -12.9355949003
 O         4.5632413139       -0.0773931608      -12.5630922986
 C         5.4713312838       -1.8105473659      -13.9911613363
 C         6.3801122802       -0.5407151272      -14.5843545306
 O         6.2167343563       -0.2560353156      -15.7301513448
 C         7.2204117946        0.2300252802      -13.5329086376
 C         8.6479648964        0.7104643050      -13.7641831660
 C         8.7911844904        1.5384645183      -15.0512904941
 O         9.1244177992        0.9711077874      -16.0890243599
 C         8.5348086007        3.1193486035      -15.1050114873
 C         6.9720040188        3.5100454920      -14.9387971948
 O         6.3343433317        2.9278106637      -14.0910811506
 C         6.4442841723        4.6531623702      -15.8261299616
 C         5.0214694768        4.5446300192      -16.4751342607
 C         4.8278378192        3.6743773667      -17.7564731758
 O         5.5639261319        2.6953839485      -17.9726837324
 C         3.7232957890        4.1005103836      -18.7924875676
 C         4.3335775393        5.3613203201      -19.3589474617
 O         4.3460198340        6.4271433639      -18.7420340686
 C         5.3018263635        5.1250654577      -20.5912595095
 C         6.2811806510        6.2700213151      -20.8458010841
 C         6.9126088338        6.0332055954      -22.2806562084
 O         6.4411087956        6.0583357629      -23.3656401634
 C         8.5526300008        5.6823711825      -22.2515312660
 C         8.8263587980        4.1852734164      -21.5680683369
 O         7.9430360496        3.6944705348      -20.9429017558
 C        10.2676943573        3.6892968971      -21.4982743748
 C        10.4242256006        2.1146564820      -21.4094925434
 C         9.3308860540        1.4411364425      -20.5186153097
 O         9.0049355353        1.7149533755      -19.4075624738
 C         8.5182771285        0.1383886755      -21.0527018978
 C         6.9578370965        0.4710065151      -20.9363644315
 O         6.2834016468        0.3403631471      -19.8764285983
 C         6.2044209470        0.9741026804      -22.1130696619
 C         8.9370238613       -0.2798009566      -22.4811260229
 C         8.8379371728       -1.0092866314      -20.0811395111
 C         9.0071512776        5.6919051672      -23.8052363406
 C         9.3980272315        6.5666858197      -21.2708632148
 C         3.5135990061        2.9054866204      -19.8085037637
 C         2.3157316228        4.4323755292      -18.2807465517
 C         9.1897311896        3.8635527475      -13.9076147755
 C         9.1376523299        3.4496194952      -16.4117466322
 C         6.3932343791       -2.9268193983      -13.4669250643
 C         4.6484353453       -2.3750888329      -15.1582131435
 C         1.1261669934       -4.5882316901      -11.1028033331
 C        -0.8835632684       -3.2768868494      -10.3214407628
 C        -0.1940611064       -3.7598326279       -3.5853807107
 C        -0.9100922662       -6.1222351762       -3.4837568279
 C        -6.5416842655       -2.3437312382       -4.2946777879
 C        -6.4260691011       -3.2293929533       -1.9724491819
 C       -11.8217842705       -8.1651356945       -4.1210940843
 C       -12.0133916711       -5.6794275136       -4.7242962947
 C       -14.3844364500       -1.9082186577        0.8756154415
 C       -15.8669665814       -3.8612858649        1.3035702129
 C       -15.0069791863       -4.5733875625       -5.9385156075
 C       -16.6591279427       -2.9071932999       -6.8452186469
 C       -22.2816030094       -6.7767060296       -4.1762057063
 C       -22.6061976170       -4.4469800331       -3.3670033047
 H       -21.9646538928       -5.9871135513       -0.7239682181
 H       -20.6653506977       -6.9394382091       -0.6466885334
 H       -21.9629364315       -7.4863375854       -1.7773491072
 H       -20.2802949066       -6.1114036891       -6.3965807570
 H       -19.4877387047       -6.8423564202       -5.0323458354
 H       -18.5802397310       -4.4753934930       -6.7808993913
 H       -17.9362320669       -6.0208869921       -6.8112427038
 H       -13.8949165230       -2.6756264746       -3.9804064797
 H       -14.7279636286       -3.9371944826       -3.2812541183
 H       -15.7975124472       -1.3293235255       -2.5736808814
 H       -14.1553388329       -1.5775767895       -1.8767231683
 H       -15.1831012827       -5.8634018758       -0.7764177545
 H       -14.1623962015       -5.8935039513        0.5717576299
 H       -13.4433889003       -7.5719074616       -0.9405145955
 H       -12.1668257732       -6.3996866930       -0.7379120208
 H        -9.1185352923       -6.4856817356       -4.5540168482
 H        -8.9788021184       -7.6453233198       -3.2736060143
 H        -7.2617698765       -6.2639317693       -2.4769771964
 H        -8.5291856223       -5.1434676260       -1.9366285431
 H        -4.8554563810       -3.9218116563       -5.8188438734
 H        -5.4010934653       -5.5472596270       -5.4264530491
 H        -3.0859739280       -5.5286353928       -6.2852613009
 H        -3.3221596364       -6.1671409962       -4.5478530416
 H         0.5078218259       -2.9754975154       -6.3955352178
 H        -0.9470620437       -3.4429301710       -7.2063776306
 H         0.2241905999       -5.0082307587       -8.5097614540
 H         1.7858354331       -4.7185325608       -7.6941279189
 H         3.2790281886       -2.0669845532      -10.3460740920
 H         2.5206347949       -0.5758478273      -11.1374622522
 H         2.5871399439       -2.0514803058      -13.3079105614
 H         3.5472283882       -3.2035216720      -12.3507561849
 H         7.2155929587       -0.5341419064      -12.6845201188
 H         6.5387978604        1.0894979929      -13.3743432650
 H         9.3242616687       -0.1737944892      -13.9868091770
 H         9.0668124924        1.2188830371      -12.8586358235
 H         7.1329540886        4.8039069496      -16.5731516255
 H         6.5475283649        5.4845212340      -15.1892032353
 H         4.6459867232        5.5392969882      -16.8530223129
 H         4.3061272837        4.3001148927      -15.6380033902
 H         4.6872909213        4.9733257355      -21.4731897376
 H         5.8612071606        4.1516377322      -20.4165349324
 H         6.8496428427        6.4006793483      -19.9001137120
 H         5.7003154541        7.1473128275      -20.7158611289
 H        10.6273519927        4.0799751642      -20.5653205509
 H        11.0170256339        4.0056072571      -22.2316196810
 H        11.4261106851        1.6865264803      -21.0280883064
 H        10.3257032953        1.7503889641      -22.4183893374
 H         6.2577963511        0.2607132222      -22.9010699380
 H         6.3680065720        2.0484853760      -22.5143213208
 H         5.1863655697        0.9911530497      -21.7286863690
 H         8.4195642629       -1.1493836963      -22.9019272264
 H        10.0111189471       -0.5683544399      -22.3723180171
 H         8.7480164749        0.5592661119      -23.0170700585
 H         9.9133561273       -1.0249223207      -19.9557793644
 H         8.4760824776       -1.9326797901      -20.4278034721
 H         8.3328180445       -0.7192581929      -19.1614471068
 H         8.2470705955        5.5500127014      -24.5337083422
 H         9.7660671467        4.8413829164      -23.9942480596
 H         9.4227977325        6.6866786089      -23.9777092486
 H        10.4612219213        6.3130939520      -21.3813080921
 H         9.0501392621        6.3814366312      -20.2495061207
 H         9.1473881564        7.5977371205      -21.4219618082
 H         2.9613341869        2.2654687149      -19.2123494782
 H         4.5330262294        2.5336492097      -20.0587240133
 H         2.8886419736        3.1290343974      -20.6676146857
 H         2.3785042522        5.4385891291      -17.8809193034
 H         2.0671714154        3.7121128192      -17.5199645159
 H         1.4610793130        4.5441384317      -18.9761517507
 H         9.0802104622        4.9395393607      -13.8167310834
 H        10.3035669137        3.7583607709      -13.8429993544
 H         8.9212669457        3.4247917093      -12.9868207106
 H        10.1370352743        3.1748179584      -16.6626240236
 H         9.2156863243        4.4784728059      -16.5568789258
 H         8.6023413771        3.0330722688      -17.2859306713
 H         5.9743983064       -3.6023994959      -12.7330809515
 H         7.1572294859       -2.4469725685      -12.8596908549
 H         6.8861110200       -3.4156621320      -14.2325868193
 H         3.9926622009       -3.1825776454      -14.9905687104
 H         5.3934974668       -2.7592717561      -15.8801516658
 H         4.0699301559       -1.6353609199      -15.6236225042
 H         0.7039361152       -5.4185373566      -10.5793122341
 H         2.2043363819       -4.7302522128      -11.0838433148
 H         0.6499224370       -4.5839051203      -12.0274902108
 H        -1.2384776698       -2.2653664486      -10.2451775579
 H        -1.2478418266       -3.9213636890       -9.4985499910
 H        -1.3100283338       -3.6081113871      -11.2329209612
 H        -0.6018471171       -3.6353117533       -2.6253073767
 H        -0.1338284449       -2.7825295173       -4.0259711082
 H         0.8391034382       -4.0293183112       -3.4526764719
 H        -1.3180880914       -6.9863586111       -4.0356813511
 H        -1.6134033237       -6.0689497874       -2.6751463399
 H         0.0175433827       -6.4371717603       -3.0403018617
 H        -7.1149478026       -2.4513819443       -5.2205054125
 H        -5.5779620118       -1.8717958231       -4.4098768909
 H        -7.0119769110       -1.5937586756       -3.7431204911
 H        -7.3341465184       -2.8167270001       -1.6611218498
 H        -5.6233219606       -2.5516031727       -1.6236151829
 H        -6.2582000659       -4.2105197568       -1.4484368837
 H       -12.7585110765       -8.2486971675       -4.7504057322
 H       -11.7451229243       -8.9568389277       -3.3723921357
 H       -10.9689894261       -8.3595087320       -4.6924286432
 H       -12.9642359019       -5.7305261687       -5.1887240683
 H       -11.3631629682       -5.8737831413       -5.5927210772
 H       -11.8689291076       -4.6019025955       -4.3953585413
 H       -14.8963790135       -1.0564821168        0.4595660386
 H       -13.3336863702       -1.8871076048        0.5761328543
 H       -14.3871516812       -1.8981281714        1.9882961479
 H       -15.2358996454       -3.9264351548        2.1154270452
 H       -16.2183840430       -4.7949233620        0.9936249223
 H       -16.7261554782       -3.3406219491        1.5919497373
 H       -14.1300032659       -3.9441429786       -5.7159926157
 H       -14.8925803665       -4.6945529802       -6.9762058568
 H       -15.1468920213       -5.6172938068       -5.5602317640
 H       -17.5456332434       -2.3458972530       -6.6865651013
 H       -16.9162541362       -3.4505535664       -7.7701419544
 H       -15.7451305094       -2.4041657016       -7.1964558379
 H       -21.5409164871       -7.6090522331       -4.2920752433
 H       -22.7455037157       -6.7777981488       -5.1182565212
 H       -23.0317896232       -7.0746162651       -3.4824515051
 H       -22.8013478179       -4.3858888324       -2.2822279464
 H       -23.5977006009       -4.6358274194       -3.7722408772
 H       -22.4574984189       -3.4023781137       -3.7228990337
 Na      -18.4873034047       -3.4153767155       -2.7026537177
 Na        7.1896404907        0.9466038531      -17.6458473431
