232

 C        -2.8344765896        7.4421692759      -12.7315295649
 C        -2.1752410488        6.7506945718      -13.8401359029
 O        -1.4319875963        5.7663307103      -13.7231004739
 C        -2.5316466457        7.0635765976      -15.3707120213
 C        -1.1765204226        7.4879849475      -16.1011016788
 O        -0.1286968979        7.6352989542      -15.4481512577
 C        -1.2338202017        7.6664403111      -17.6051651379
 C         0.1086537617        7.7600267672      -18.3582865560
 C         0.8151533352        6.3887090260      -18.2105950060
 O         0.1701293289        5.4432849839      -17.7615269741
 C         2.3642128465        6.3949649379      -18.3940945728
 C         2.9400339356        6.6759036414      -16.9461154852
 O         2.5454757677        5.9910684882      -16.0600824043
 C         4.1184262082        7.7571059745      -16.7405753426
 C         5.2441777681        7.2001038753      -15.8781470975
 C         6.5417556485        7.1901496909      -16.6738134398
 O         6.5359004242        7.7972494928      -17.7219752722
 C         7.8789351319        6.4516692379      -16.1755503749
 C         7.6004518919        4.9134523659      -16.1480198600
 O         6.4515594528        4.5153953551      -16.1968768356
 C         8.7016593276        3.9645862739      -15.8837230367
 C         8.2473705678        2.5096267779      -16.0995311615
 C         7.7671548519        1.7281225280      -14.8372916036
 O         7.8492495368        2.0488446718      -13.6718857327
 C         6.8214699967        0.5131966558      -15.2698370333
 C         5.3244111632        1.0448873200      -15.4573738449
 O         4.7020206190        0.8206423356      -16.4639970696
 C         4.6515279389        1.6675706187      -14.2128895452
 C         3.1053828503        1.3023020122      -14.1321961664
 C         2.1832883933        2.6129582981      -14.1687404475
 O         2.0932315365        3.2165371155      -15.2107680959
 C         1.4015708302        2.9900081121      -12.9192634723
 C        -0.1454701555        2.8464786220      -13.3920898757
 O        -0.5436859220        3.3795266044      -14.3915032712
 C        -1.0478834579        1.9812474610      -12.4802956388
 C        -2.5131977868        1.8492520479      -13.0584337377
 C        -3.4613250342        1.3973620581      -11.9701328023
 O        -4.0252407751        2.1704156349      -11.2346514328
 C        -3.8740504108       -0.1007263871      -11.8751763270
 C        -4.1953817737       -0.3444974689      -10.3906354713
 O        -3.3596225704       -0.7548190820       -9.6288609239
 C        -5.7008546640       -0.2036288267      -10.0187277587
 C        -5.9620007357       -0.1653940142       -8.5230081695
 C        -5.8198403538       -1.5835585660       -7.9558428805
 O        -6.0509934485       -2.4788158933       -8.7467688218
 C        -5.6934963692       -1.9077845471       -6.3493515572
 C        -4.7738850608       -3.0847735202       -6.1885443342
 O        -4.8588029651       -4.1496493277       -6.8624485494
 C        -3.6342367843       -3.0143108371       -5.1933297283
 C        -3.0804932944       -4.3704499542       -4.8314508924
 C        -4.0132377825       -5.3414741273       -4.1024998843
 O        -5.1525733121       -4.9498047101       -3.8637809333
 C        -3.5318167503       -6.8206105846       -3.6206860141
 C        -3.7524137448       -7.7302032736       -4.8105421364
 O        -2.9260081654       -7.9748398188       -5.7026035842
 C        -5.2091301131       -8.4020666367       -4.9162559484
 C        -5.4207009591       -9.0590670488       -6.2511507568
 C        -5.5491531975       -7.9923592563       -7.3185987996
 O        -6.0129342429       -6.8842752290       -7.0260428148
 C        -5.1166856581       -8.4470735406       -8.7589545548
 C        -5.9134935994       -7.6177596906       -9.7893677332
 O        -5.5131787187       -6.4671920221      -10.1280485296
 C        -7.3600006218       -8.1158165207      -10.1992923440
 C        -8.1297292890       -7.0136323753      -10.9036382989
 C        -8.7156767808       -5.8361453477      -10.0550702632
 O        -8.2222064353       -4.7158805823      -10.2711823856
 C        -9.9981907311       -5.7724128116       -9.0711871632
 C        -9.5278020635       -6.3155656467       -7.6084562183
 O        -8.4182181865       -5.9815397062       -7.1640358380
 C       -10.5474845943       -7.1002472309       -6.7314036653
 C       -10.4172489231       -6.8765808984       -5.2431732700
 C       -11.4579652966       -7.8289299957       -4.5684430700
 O       -12.6422721527       -7.5365239148       -4.5943221443
 C       -10.8692511458       -9.1214930759       -3.8316175969
 C       -10.7678314614       -8.3746464003       -2.4163147411
 O        -9.6671245990       -7.8860512228       -2.1353282789
 C       -12.0156670106       -8.2457127993       -1.5782224109
 C       -12.0214423190       -9.3166936808       -0.4651802750
 C       -13.4359857620       -9.9478960608       -0.3695076025
 O       -14.1765608828      -10.0231155814       -1.3139487753
 C       -13.7773278746      -10.4855839200        1.0713349223
 C       -12.5044722828      -11.0048211496        1.9046920752
 O       -11.9080924874      -12.0148389962        1.5331914487
 C       -12.1288773298      -10.1341221250        3.1289993971
 C       -14.5965006735       -9.2738247164        1.5895629638
 C       -14.5398679527      -11.8120537731        0.8624864516
 C       -11.8825529519      -10.2950318116       -3.7591751925
 C        -9.5080659619       -9.5464525237       -4.1574196481
 C       -10.3440703385       -4.2495481050       -8.8952045406
 C       -11.1976858006       -6.6827747239       -9.6986855731
 C        -3.5818848116       -7.9278331921       -8.7766880723
 C        -5.0518602536       -9.9245494820       -9.0502819548
 C        -1.9984972984       -6.7339853654       -3.3479831990
 C        -4.3700559213       -7.1203788989       -2.3422269246
 C        -5.2947648302       -0.7299802722       -5.5036498370
 C        -7.1338224963       -2.3833271009       -5.9193962171
 C        -5.0021031447       -0.1283800642      -12.9940479821
 C        -2.7475793301       -1.0214207856      -12.3216652469
 C         1.6919551778        2.0651255463      -11.6250434447
 C         1.7991657298        4.5196126508      -12.5401068660
 C         7.5118731842       -0.1971637427      -16.5624264934
 C         6.8262610594       -0.5549417049      -14.1047594571
 C         8.9275413443        6.8116190543      -17.2553943376
 C         8.2579611511        6.8903891010      -14.7687387684
 C         2.9866205344        5.0115561751      -18.6692867977
 C         2.8201657244        7.4344278758      -19.3667532763
 C        -3.0554986445        5.8664684607      -16.0682207087
 C        -3.7296573236        8.0634245226      -15.4544417318
 H        -2.6392055816        6.7825096562      -11.8687720572
 H        -3.9088951060        7.5726292407      -12.7471699550
 H        -2.3440006260        8.4157320609      -12.6210675023
 H        -1.7532799960        8.5593517225      -17.9323558686
 H        -1.7862894865        6.8420797650      -18.0609333168
 H         0.6980430218        8.6356668106      -18.1912344981
 H        -0.1913059620        7.9378750688      -19.3985463950
 H         3.6534691960        8.5909516789      -16.2317754695
 H         4.6576886204        8.0773573948      -17.5783586510
 H         4.9993774297        6.2361451770      -15.4321538022
 H         5.4919530014        7.8320046571      -15.0063022930
 H         8.9859343364        4.1236933740      -14.8742275369
 H         9.6048607168        4.3558680213      -16.3734819638
 H         9.0318685695        1.9160173427      -16.5481726930
 H         7.3146841100        2.4455635902      -16.8008564089
 H         4.7483023489        2.7629889887      -14.3365567965
 H         5.2034783066        1.4539006182      -13.2631106253
 H         3.0335283011        0.6419175379      -13.3625105757
 H         2.8309464993        0.8425093422      -15.1152729000
 H        -1.0590476254        2.4928875356      -11.5137578966
 H        -0.5089616110        1.0326950582      -12.3215050377
 H        -2.5992223176        1.1529097182      -13.7976474358
 H        -2.7811393581        2.9463147688      -13.1068830815
 H        -6.4063773614       -0.8721279676      -10.4669682778
 H        -6.0206858429        0.7635830823      -10.4888903444
 H        -7.0327310533        0.1385720060       -8.3543739154
 H        -5.3861240358        0.7070783015       -7.9166952279
 H        -3.9809442770       -2.5472877130       -4.2357209825
 H        -2.8785496639       -2.2876270208       -5.4550623140
 H        -2.1607831655       -4.1966440924       -4.2342970284
 H        -2.5470730477       -4.8729285098       -5.7118801229
 H        -5.9248062840       -7.6349282011       -4.9193052252
 H        -5.3007977316       -9.0334148523       -4.0398205659
 H        -6.3559570505       -9.6719849748       -6.1714844321
 H        -4.4896800007       -9.7409676082       -6.4769642695
 H        -7.9016021469       -8.3198778468       -9.2923801305
 H        -7.1893126632       -8.9537604809      -10.8661951442
 H        -8.9794852638       -7.4203161306      -11.3921846592
 H        -7.5131582626       -6.6098742253      -11.6911066683
 H       -10.2183133581       -8.1031223197       -6.9241643651
 H       -11.5668611558       -7.0689973364       -7.0883079044
 H       -10.5644096730       -5.7950782308       -5.0489220694
 H        -9.3726227996       -7.0736532781       -4.8922679376
 H       -12.9387515978       -8.3657396625       -2.2188730391
 H       -11.9859851844       -7.2934153044       -1.1405000116
 H       -11.8104858197       -8.7867148516        0.4811963569
 H       -11.3430751877      -10.2196043901       -0.5263929834
 H       -11.1397070088       -9.6331309303        2.9951892493
 H       -12.0746449258      -10.7255455396        4.0515728711
 H       -12.9504452952       -9.4301163375        3.4727772155
 H       -14.4147872088       -8.3178121036        1.0388788015
 H       -14.5364977487       -9.0813739018        2.7574556751
 H       -15.7302804891       -9.4099494613        1.4176912823
 H       -14.9665615980      -12.1523258563        1.7621296968
 H       -13.8133690726      -12.4573981206        0.3170321735
 H       -15.3272903028      -11.6482070446        0.1589217641
 H       -11.5793005310      -11.0288819835       -2.9467436536
 H       -11.9121005047      -10.8414638499       -4.7260410194
 H       -12.9178570601       -9.9402949082       -3.6396563063
 H        -8.7842426516       -8.6795083434       -4.2411071388
 H        -9.4555256686      -10.0969586236       -5.1003781528
 H        -9.1781502539      -10.2568304238       -3.4256836435
 H        -9.5973212262       -3.7002109718       -8.2465805901
 H       -11.2710851529       -4.2151207293       -8.3638206228
 H       -10.3924819459       -3.8343179846       -9.9252981469
 H       -11.3354059318       -6.4827947891      -10.7398579902
 H       -12.0562986677       -6.4380293368       -9.1883322149
 H       -10.8472203335       -7.7397100971       -9.6574630216
 H        -3.1341148309       -8.5741014903       -8.0035583055
 H        -3.4644139108       -6.9228558941       -8.3359204575
 H        -3.1739180212       -7.9304448592       -9.7705883702
 H        -4.1747021501      -10.4286625171       -8.5649317182
 H        -5.0028579713      -10.1076460654      -10.1400176974
 H        -5.8234694848      -10.4954001659       -8.7314558223
 H        -1.7896783668       -5.9509104355       -2.6676696670
 H        -1.5875612123       -6.7285501623       -4.3668303957
 H        -1.7336992639       -7.6058606929       -2.8597243447
 H        -3.6956064523       -6.8046590651       -1.5570906757
 H        -4.4431381697       -8.2184897970       -2.2942028377
 H        -5.2927322104       -6.5050861015       -2.1835462623
 H        -5.2364546412       -0.8903798594       -4.4787115644
 H        -6.0179763205        0.0350148421       -5.6537991585
 H        -4.3611689855       -0.3539740528       -5.8521012892
 H        -7.4247201752       -3.0886607554       -6.6667118273
 H        -7.8811443258       -1.5979723996       -5.8069681914
 H        -7.0512781580       -2.9251708139       -4.9778995442
 H        -5.2230809870       -1.1008685471      -13.4369442893
 H        -4.7002175603        0.6001699744      -13.6738047386
 H        -5.9641541968        0.1753197808      -12.5356830912
 H        -3.0481649093       -2.0470830749      -12.5083812219
 H        -2.0597147222       -1.1239610833      -11.5108491423
 H        -2.3942569011       -0.6354692668      -13.2705569005
 H         1.3971496806        0.9673630893      -11.6463061168
 H         1.2365463434        2.4713164802      -10.8022284116
 H         2.8032242414        1.9930854417      -11.4320434472
 H         1.0200366403        4.8810857163      -11.8926301694
 H         1.9038397660        5.1896525915      -13.4099626502
 H         2.6930269243        4.5997898951      -11.9035878454
 H         7.2126780446        0.2117758007      -17.5327360085
 H         7.2518189223       -1.2310917307      -16.4859219152
 H         8.5954577267       -0.1058517703      -16.4027049316
 H         7.7916494442       -1.1135772950      -14.1865710638
 H         6.1006305805       -1.2956771049      -14.2863480814
 H         6.6047863292       -0.1162747420      -13.1403887930
 H         9.9386437487        6.5397809261      -16.9828911953
 H         8.9902252504        7.8689250214      -17.4265813446
 H         8.5817189202        6.3851363998      -18.2599392259
 H         7.5498373329        6.2433068157      -14.0822078762
 H         8.0029495001        7.9626328185      -14.5567057473
 H         9.3076165839        6.7397118412      -14.6750275843
 H         2.2849470569        4.3809435070      -19.1208252068
 H         3.1927217450        4.5300639484      -17.6534951194
 H         3.9150154995        5.0572271646      -19.2752657488
 H         2.8182107306        8.4771640598      -19.0491996546
 H         2.2363781152        7.3956040518      -20.2989443710
 H         3.7909851503        7.2270429771      -19.6622372322
 H        -2.3697965451        5.1801939040      -16.5443898796
 H        -3.8782491074        6.0230949425      -16.7603352245
 H        -3.5183763299        5.1746905338      -15.3994317683
 H        -3.4525971649        9.0715952707      -15.1779433330
 H        -4.6729350433        7.8600426589      -14.9038750168
 H        -4.0932263964        8.0918449558      -16.4690395034
 Na        0.4470466352        4.9895929168      -15.5849907428
 Na       -6.3599452097       -4.6474858444       -8.4163910547
