232

 C        -2.6537536073        6.4779287484      -13.2028621067
 C        -1.5629512251        6.5300584634      -14.3188816688
 O        -0.4323642405        6.1552195135      -14.1010303939
 C        -2.0685338014        7.2068260555      -15.7292612617
 C        -0.8617736766        7.8418089753      -16.5150450616
 O         0.2064009205        8.1010488711      -16.0079372200
 C        -0.9758987903        8.1239243220      -18.0121593037
 C         0.4631241269        8.3399975648      -18.5562787423
 C         1.3008527011        7.0915947029      -18.0917278583
 O         0.7016919784        6.0287182060      -17.8856245721
 C         2.7912418926        7.3028349288      -17.7728921284
 C         2.9890801465        7.4861903682      -16.1978251249
 O         2.4545456086        6.7960047089      -15.3966299837
 C         4.0383068214        8.4626576630      -15.4861083036
 C         5.3978272148        7.6346450267      -15.1917860262
 C         6.3269860858        7.3957752466      -16.4548934035
 O         5.9385391264        7.6782023949      -17.5579760594
 C         7.6704417480        6.5867611948      -16.1692182986
 C         7.2765471185        4.9834562243      -16.1452158747
 O         6.1830624042        4.5793620014      -16.4784401950
 C         8.3489953397        3.9468803765      -15.8471758747
 C         8.0955751823        2.4951451378      -16.3455361945
 C         7.0906295271        1.8525396817      -15.3521455587
 O         6.7006339063        2.5030740768      -14.3802309332
 C         6.6006234115        0.3372511081      -15.5796563564
 C         5.1276615271        0.3501509748      -16.1319107429
 O         4.8552232206        0.1145314216      -17.2511675645
 C         4.1076877183        0.6765578919      -15.0611948860
 C         2.6886061443        0.7657104609      -15.6386390245
 C         1.9725657411        2.0519365568      -15.1855641196
 O         1.7962240777        2.9023272705      -16.0899116969
 C         1.5324867894        2.2164093852      -13.7273958369
 C         0.0053744675        2.4032165611      -13.7527301594
 O        -0.4176759925        3.3439562069      -14.3881286140
 C        -0.8737170417        1.5983368614      -12.8293053101
 C        -2.3558809620        1.6443690936      -13.1099211687
 C        -3.1775463906        0.9588249094      -11.8453710455
 O        -3.3909954684        1.6437289884      -10.8603188641
 C        -3.7552474785       -0.5281117104      -12.0240615492
 C        -4.0938419417       -1.0554339787      -10.6213659076
 O        -3.4159705899       -1.8003873704       -9.9126533139
 C        -5.3224254970       -0.4653384690       -9.8864449864
 C        -5.3772930026       -0.6660330944       -8.3683453105
 C        -6.0887813282       -1.9784326810       -7.8735542599
 O        -6.6485808771       -2.6645041382       -8.6590894500
 C        -6.0981596497       -2.2498443590       -6.2659942329
 C        -5.0000711514       -3.3464826260       -6.0603008991
 O        -4.8732133219       -4.1278417646       -6.9619758339
 C        -4.0305853524       -3.1102639689       -4.9268083757
 C        -3.3274536941       -4.4220959922       -4.4478069363
 C        -4.4200434550       -5.1368083123       -3.6697945042
 O        -5.5654765835       -4.7598380266       -3.6562811688
 C        -3.8820008933       -6.4573096514       -2.9560426640
 C        -3.8453857012       -7.6195482856       -4.0217295544
 O        -2.8517727416       -7.8115705960       -4.7407484269
 C        -5.1603710403       -8.2749884526       -4.4839992269
 C        -5.1125326444       -8.8566599142       -5.9100897972
 C        -5.5473231615       -7.8896901838       -7.0346484709
 O        -6.1094752872       -6.8658990619       -6.9167808735
 C        -5.0701831266       -8.3922189714       -8.5012647304
 C        -6.1746182430       -7.6766579077       -9.4502453953
 O        -5.8440922290       -6.6043314099       -9.9148991197
 C        -7.6720351999       -8.1531299085       -9.6321482051
 C        -8.5498910917       -7.3275779299      -10.5630756507
 C        -8.7682406212       -5.8651321114      -10.2141422528
 O        -8.1090046269       -4.9114453217      -10.5739317378
 C        -9.9506420779       -5.6418284732       -9.2340899470
 C        -9.6614749168       -6.2032400998       -7.7618956352
 O        -8.5604386044       -6.0891663017       -7.2951213391
 C       -10.7801239139       -6.7702082688       -6.9622714192
 C       -10.3504083796       -7.5588672885       -5.7242712805
 C       -11.3939579572       -8.1043804219       -4.8164081903
 O       -12.5372687617       -7.7641682161       -4.8800913773
 C       -10.9520104644       -9.2423257501       -3.8507558224
 C       -10.5221801685       -8.3914175325       -2.5440899057
 O        -9.3934572095       -8.0367007458       -2.4762065293
 C       -11.6014312818       -8.0150835846       -1.4690320266
 C       -11.6810048670       -8.7962555041       -0.0628904417
 C       -13.1190771806       -9.2622437524        0.1078649569
 O       -13.7961778688       -9.2837348919       -0.9114836050
 C       -13.7379797738       -9.8014646253        1.4811333416
 C       -12.5409399292      -10.6902546625        2.1299657839
 O       -11.9115924941      -11.2833181078        1.3141839817
 C       -12.2120819071      -10.7330952568        3.6382419554
 C       -14.2248481368       -8.5984104968        2.2801776922
 C       -14.9103844747      -10.8350122466        1.1777094668
 C       -12.1109893043      -10.3325821503       -3.7291609255
 C        -9.6441207106      -10.0118168815       -4.2867482751
 C       -10.2190313017       -4.1342243789       -9.0470450590
 C       -11.3474813636       -6.1400684795       -9.7197502197
 C        -3.6189180384       -7.9311888925       -8.7316832650
 C        -5.1352041909       -9.9610642467       -8.6705938927
 C        -2.3248854892       -6.3557404038       -2.4461282683
 C        -4.8440616138       -6.7446984107       -1.7501607208
 C        -5.7566567833       -1.0080264817       -5.3860272643
 C        -7.5245920885       -2.7481855817       -5.9237760216
 C        -5.0406579379       -0.6351746012      -12.9720233644
 C        -2.5754507166       -1.3988795495      -12.5276297243
 C         1.9035741590        0.9970434376      -12.7815775434
 C         2.1953929213        3.4929764656      -12.9887578529
 C         7.3992177006       -0.5221032390      -16.6726926337
 C         6.7346202318       -0.4010525551      -14.1811782205
 C         8.6729081051        6.7938842750      -17.3667871205
 C         8.3371904826        6.9942788786      -14.8310816376
 C         3.4974934165        5.8147550971      -18.0352097604
 C         3.2703716401        8.4625536169      -18.5665144972
 C        -2.7221165832        6.0556894053      -16.5436103412
 C        -3.0892364530        8.4031999341      -15.5122174630
 H        -2.5884027256        5.4550470262      -12.8276573410
 H        -3.6114618192        6.7067168707      -13.6110266175
 H        -2.4200057414        7.0466913851      -12.3081738261
 H        -1.5340145923        9.0378722581      -18.0986155376
 H        -1.5721047678        7.4100123578      -18.5366457643
 H         0.7540416387        9.2073389905      -17.9830359767
 H         0.6260438811        8.5013197121      -19.6526764193
 H         3.5233110784        8.6810587335      -14.5162779945
 H         4.3716476165        9.4262213091      -15.8549108614
 H         5.0955114952        6.6595028997      -14.7995016654
 H         5.9473283051        8.2398295650      -14.4697967011
 H         8.3769663173        3.9090495481      -14.7873910154
 H         9.2537400228        4.3629745559      -16.2700905569
 H         8.9930210786        1.9953660250      -16.5010063788
 H         7.5612921877        2.5281626990      -17.3446808151
 H         4.4031471543        1.6587317560      -14.5987046439
 H         4.1229037063        0.0133508071      -14.1874549461
 H         2.0826034431       -0.1429654403      -15.4716901585
 H         2.6811781483        0.9732577709      -16.7834004316
 H        -0.5832340369        1.9919748096      -11.8952215491
 H        -0.4679143870        0.5516675761      -12.9254794248
 H        -2.5876491295        1.2729002061      -14.0439190035
 H        -2.6777759309        2.6702021300      -13.4119777773
 H        -6.2373251661       -0.7178507172      -10.3620818979
 H        -5.1721895283        0.6507377778       -9.9181873233
 H        -5.8161124554        0.2305760161       -7.9287751281
 H        -4.3876372743       -0.6834231420       -8.1069508283
 H        -4.5569468010       -2.7029204441       -4.0120904439
 H        -3.2494494436       -2.4429258209       -5.3808765707
 H        -2.4731132820       -4.1438996005       -3.8725313025
 H        -3.0922715519       -4.9848706528       -5.3428278927
 H        -5.8677467371       -7.4395268316       -4.4597552201
 H        -5.6624486259       -8.9664992654       -3.8028207200
 H        -5.7148411037       -9.7665869310       -6.0239512372
 H        -4.1106739497       -9.1387103949       -6.0150529401
 H        -8.1386584894       -8.2182095371       -8.5844456754
 H        -7.7636428505       -9.1905681509       -9.8269395436
 H        -9.5278738188       -7.9019540208      -10.5145512971
 H        -8.1212512354       -7.3106681268      -11.6400775869
 H       -11.3906180561       -7.4377983482       -7.5967983575
 H       -11.4014015114       -5.9293549644       -6.5742709104
 H        -9.7883524597       -6.8939456065       -5.0730737511
 H        -9.6613379162       -8.3407351103       -6.0680861023
 H       -12.6154240259       -8.0290741218       -1.9748430315
 H       -11.4403817210       -7.0116718858       -1.2011289950
 H       -11.4334047488       -8.1971867337        0.8265022475
 H       -11.0271205700       -9.6993228698       -0.0029339649
 H       -12.0363053141       -9.6711059675        3.8903763987
 H       -11.2250987300      -11.1361842848        3.7802528783
 H       -12.8845208499      -11.2879846518        4.3818997772
 H       -14.2047569183       -8.9576141891        3.3267271946
 H       -15.1557146877       -8.0938057529        1.9743424146
 H       -13.4777625527       -7.7620002970        2.1162598171
 H       -15.3990046379      -10.9301467522        2.1445070446
 H       -14.5473778151      -11.8848847221        1.0292586522
 H       -15.5365096095      -10.4507318549        0.3944127264
 H       -11.8646733749      -11.0337761131       -2.9186889471
 H       -12.1026490724      -10.8977004289       -4.6996635394
 H       -12.9893543695       -9.7920417647       -3.5805646204
 H        -8.6946073100       -9.4506132245       -4.2046226420
 H        -9.5671123386      -10.2880000506       -5.3278818413
 H        -9.5615276794      -10.9171723485       -3.7774372461
 H        -9.3368582204       -3.6542319897       -8.5447483646
 H       -11.1688260883       -3.8439079118       -8.6103206133
 H       -10.1980793100       -3.7206986501      -10.0929777606
 H       -11.6086992322       -6.0123976741      -10.7604741513
 H       -12.0031205122       -5.6949852392       -9.0603143415
 H       -11.3496392430       -7.1702140085       -9.5082295484
 H        -2.9167575529       -8.1259090578       -7.9245947823
 H        -3.8248874732       -6.8501334025       -8.9798513337
 H        -3.1796155861       -8.4899831025       -9.5499874720
 H        -4.1927666040      -10.4222540076       -8.4648095481
 H        -5.2976774200      -10.1628738469       -9.7846922381
 H        -5.8138431441      -10.5036459519       -8.0178043864
 H        -2.0457926752       -5.4462015333       -1.9281955534
 H        -1.7509322937       -6.3568363228       -3.3777229461
 H        -2.1485187150       -7.2015205968       -1.8453339909
 H        -4.8904867603       -5.8334963560       -1.1223372249
 H        -4.4043196831       -7.5583866421       -1.1235482718
 H        -5.8436510664       -7.1190049888       -1.9790067157
 H        -6.0540928159       -1.2734254975       -4.4197125555
 H        -6.3202995945       -0.1360075829       -5.6574630572
 H        -4.7351154794       -0.7222881251       -5.4363763354
 H        -7.6706138107       -3.7688930691       -6.2280907788
 H        -8.1634897353       -2.1241537156       -6.5475896551
 H        -7.7254858149       -2.6597238258       -4.8725213374
 H        -5.0069878887       -1.5763029362      -13.5345507554
 H        -5.2474185861        0.0889313128      -13.7040625185
 H        -5.9510081516       -0.5949133990      -12.3619765559
 H        -2.8392923732       -2.4598291844      -12.3802553368
 H        -1.6773203601       -1.2594503634      -11.9009220618
 H        -2.2164414440       -1.1947337218      -13.5562027939
 H         1.6321193000        0.0007579211      -13.2032485109
 H         1.2560990381        1.1463127672      -11.8827545494
 H         2.9346659703        1.0561126016      -12.5501425843
 H         1.6150181141        3.9209040822      -12.1836161643
 H         2.3704329363        4.3123444398      -13.7234456778
 H         3.1991135155        3.2499651652      -12.6844932264
 H         7.2242124689        0.0112515718      -17.6550298544
 H         7.0480873760       -1.5254029680      -16.6288300644
 H         8.3953641352       -0.3880600345      -16.3646832379
 H         7.8751150571       -0.4447072161      -14.0729871459
 H         6.3438096156       -1.3582189693      -14.2145303263
 H         6.2935976778        0.2319394777      -13.3564374486
 H         9.5874100800        6.1912425460      -17.2384648230
 H         9.0299717554        7.8024903915      -17.4387390788
 H         8.1820518734        6.4063421876      -18.3450607677
 H         7.6638394794        6.8752806003      -13.9916354359
 H         8.6902887147        8.0804081533      -14.8983513621
 H         9.1790006445        6.3693872816      -14.6121362556
 H         3.5785253291        5.6359342966      -19.0753235933
 H         2.7893604005        5.0757791813      -17.5817499437
 H         4.4149342507        5.7601761676      -17.5176301495
 H         2.6651065073        9.3609918047      -18.6321371726
 H         3.4677081829        8.1933401236      -19.6080028848
 H         4.1483966793        8.8450662640      -18.1954386500
 H        -2.1762515559        5.1015763032      -16.4664470122
 H        -2.6704250078        6.2865755069      -17.6629868876
 H        -3.7940281919        5.9998389305      -16.2498816979
 H        -2.7084532737        8.9242635924      -14.6191561674
 H        -4.0764107509        8.0167263552      -15.2329682793
 H        -3.1036175236        9.0148437952      -16.4157456537
 Na        0.9299223783        5.0144731707      -15.7042849073
 Na       -6.6320394571       -4.8676290664       -8.2403612967
