232

 C       -21.4315188216       -6.7035472306       -1.2528352236
 C       -20.8472776920       -5.7661346376       -2.3399432029
 O       -19.8775755819       -5.1134852122       -2.0613813801
 C       -21.6710039145       -5.4328783831       -3.6680371335
 C       -20.5252715744       -4.9831260093       -4.6547593994
 O       -20.3737611678       -3.8200781984       -4.8801600384
 C       -19.6979605329       -5.9899717516       -5.5157894881
 C       -18.5345449497       -5.4032864168       -6.3678615529
 C       -17.5316758417       -4.6749915542       -5.4174054684
 O       -17.7597178750       -4.7421738091       -4.2549015830
 C       -16.2903863933       -3.8262910163       -5.7741503909
 C       -16.1125416352       -2.8737239284       -4.3394738398
 O       -17.0706084037       -2.1545209940       -4.1326349073
 C       -14.9564793411       -3.1316403988       -3.3711432309
 C       -15.1328631793       -2.1823741338       -2.1840063749
 C       -15.7785997131       -2.8277845782       -0.9426990641
 O       -16.9823785707       -3.0608827338       -0.9557662345
 C       -14.8705383796       -3.1680391274        0.2188746778
 C       -13.7829985708       -4.1896773037       -0.4058316905
 O       -12.7750642300       -3.6825918257       -0.8455279282
 C       -14.1198577542       -5.6597121256       -0.4215144753
 C       -13.0768240032       -6.5665965568       -1.0719796109
 C       -13.1072692832       -6.3724629479       -2.6355080336
 O       -14.1896196623       -6.2135145286       -3.1906946914
 C       -11.7228311733       -6.4647620532       -3.4909733222
 C       -10.4753911849       -6.0050833070       -2.7061577078
 O       -10.4526253889       -5.4585185135       -1.6283051776
 C        -9.1737770712       -6.4995679391       -3.3853082645
 C        -7.8958403666       -5.8464743067       -2.8615588511
 C        -7.4739002993       -4.6887649622       -3.8129711077
 O        -7.5869646431       -4.8377586369       -5.0178842474
 C        -6.4470785212       -3.6857587870       -3.3277587106
 C        -5.0517689106       -4.4843803552       -3.6705957023
 O        -4.4818777330       -5.0115279566       -2.7679300204
 C        -4.7309582099       -4.5329184017       -5.0962225083
 C        -3.3470797375       -5.1681878672       -5.4837057351
 C        -2.3414008652       -4.2015514198       -4.8315315341
 O        -2.6295770213       -3.0326536041       -4.7600661854
 C        -0.8546588981       -4.7632504367       -4.4064645736
 C        -0.1914723335       -5.1703706484       -5.8260304360
 O        -0.2795839183       -6.3170430962       -6.1724668498
 C         0.1249392019       -3.9773159320       -6.7085789167
 C         0.7896844458       -4.4329629339       -8.0466429246
 C         1.1459703932       -3.1261556930       -8.8704220283
 O         1.7925270681       -2.2993629666       -8.3009366129
 C         0.6461069290       -3.1141643247      -10.3463743511
 C         1.1576714653       -1.9930727887      -11.3307671252
 O         0.4346130983       -1.4554100310      -12.0950431056
 C         2.6546720427       -1.4980092948      -11.2895353460
 C         3.3261921141       -1.9966282985      -12.6182691880
 C         4.4770756466       -1.1691406615      -13.0691649864
 O         4.5626450538        0.0204212258      -12.8083200381
 C         5.4860778449       -1.7725692227      -14.1599805968
 C         6.3984748784       -0.5817322612      -14.6152368278
 O         6.5891380524       -0.1539845120      -15.7511687154
 C         7.0950862375        0.1747233088      -13.4000742371
 C         8.5179244701        0.6049930114      -13.7726770238
 C         8.7463659495        1.4736663732      -15.2263693194
 O         9.0383436924        0.8769158557      -16.2331145784
 C         8.5248009870        2.9812574999      -15.1117902686
 C         7.0495799915        3.3341841604      -15.2639157734
 O         6.2469608645        2.8715932652      -14.5222498108
 C         6.5416397931        4.5223048767      -16.1463083401
 C         5.0789287701        4.3729764133      -16.4334220068
 C         4.8328026615        3.4315048254      -17.6340398991
 O         5.5030662553        2.4399694113      -17.7074087483
 C         3.8209713643        3.9028530620      -18.6382048012
 C         4.4646061851        5.1863318807      -19.4297243863
 O         4.3786392250        6.2340536234      -18.8559049183
 C         5.2752357774        5.0840839116      -20.6360371357
 C         6.2684274713        6.2501069757      -20.6607508943
 C         6.9153348812        6.1521616865      -22.0375145372
 O         6.3324522137        6.2502292070      -23.1280364324
 C         8.5081616209        5.6836033046      -22.2037701638
 C         8.6108329412        4.2727998131      -21.5193915685
 O         7.6736410123        3.4357350013      -21.3350814909
 C        10.0353271281        3.8192186309      -21.1253062231
 C        10.2357647916        2.3020645653      -21.2082019643
 C         9.2729783088        1.5569043879      -20.2721910175
 O         8.9792207522        1.8516986015      -19.1133499943
 C         8.5063651691        0.1434254908      -21.0093880854
 C         6.9657095050        0.2108928022      -20.8776031129
 O         6.4521773379       -0.0538172120      -19.8365020741
 C         6.0793622177        0.4749895075      -22.0109987180
 C         8.8421231268       -0.0485575994      -22.5263343600
 C         9.0455175457       -0.9902104707      -20.0687152013
 C         9.0017517967        5.5439443161      -23.6861539205
 C         9.3249724912        6.7700613191      -21.4211969225
 C         3.5369260745        2.7397671991      -19.7409447516
 C         2.5821510258        4.2721536870      -17.8580967925
 C         9.1182308422        3.5166103156      -13.8483754773
 C         9.3195063977        3.7299106293      -16.2385265417
 C         6.6191772105       -2.7897681877      -13.6894393538
 C         4.6905637774       -2.4004189512      -15.3476893642
 C         1.1413274714       -4.5368558000      -10.9243897393
 C        -0.8724927689       -3.0933058806      -10.3251066746
 C        -0.0635475768       -3.5724806908       -3.7683699940
 C        -1.0909379290       -5.9378023458       -3.5074740168
 C        -6.5903790912       -2.3979008155       -4.2707924198
 C        -6.5633213879       -3.2369800514       -1.9109827003
 C       -11.7691017361       -7.9417623544       -3.9984718221
 C       -11.8821028275       -5.6855981262       -4.7849591293
 C       -14.2084445167       -1.8934371230        0.6529670400
 C       -15.7587463329       -3.8067182885        1.3556179101
 C       -15.1333572554       -4.7521099806       -6.0211584320
 C       -16.5125388042       -2.8402702564       -6.9293648592
 C       -22.3789092015       -6.6688190799       -4.2032506086
 C       -22.6109009668       -4.2362729352       -3.4182910410
 H       -22.3039271613       -6.2553370657       -0.7924961087
 H       -20.7597388068       -6.7980932278       -0.3235578338
 H       -21.7039409224       -7.6486677990       -1.7216235138
 H       -20.4461343346       -6.4534721893       -6.1989075021
 H       -19.3743793823       -6.7836567455       -4.8423876318
 H       -18.8463853149       -4.6687921694       -7.1816783247
 H       -17.9237301526       -6.1380075344       -6.9526294811
 H       -14.0039334984       -3.0662823813       -3.8146110574
 H       -15.0423056294       -4.2135523434       -3.1014642012
 H       -15.7425036111       -1.3389592554       -2.6499849560
 H       -14.2059516714       -1.7959982282       -1.9821479270
 H       -15.0657623722       -5.8527772495       -0.9423862607
 H       -14.4062098860       -5.9722315849        0.5946880318
 H       -13.4045197763       -7.6115359017       -0.8589289264
 H       -12.0969527548       -6.4706034915       -0.6477136175
 H        -9.2437983074       -6.4787275853       -4.4858498045
 H        -9.2868035904       -7.5621572487       -3.1390659367
 H        -7.0566156519       -6.5534682289       -2.8672901235
 H        -8.0350014662       -5.5476806099       -1.8247480194
 H        -4.7278211212       -3.5326167698       -5.4956388658
 H        -5.5905849684       -5.0483220165       -5.5505236349
 H        -3.2733524727       -4.9435058933       -6.5136150724
 H        -3.2413861698       -6.2063916857       -5.2490665149
 H         0.7979025364       -3.2171750822       -6.2681891927
 H        -0.7716322026       -3.4336175454       -6.9826756169
 H         0.1129863709       -5.2519014627       -8.4519819817
 H         1.7765635094       -4.7491806223       -7.8217706958
 H         3.1711057090       -1.7973812770      -10.3699804071
 H         2.7202456120       -0.4278661531      -11.2981473370
 H         2.5330590628       -1.9106768053      -13.4565382831
 H         3.6993668601       -2.9870784437      -12.5277139058
 H         6.9632672677       -0.4331139984      -12.5676998339
 H         6.4973272331        1.0795633073      -13.3397578694
 H         9.1268088836       -0.2779087417      -13.8555551179
 H         9.0737489853        1.2497881127      -13.1014133557
 H         7.0869058181        4.5598443676      -17.1570085958
 H         6.8034345553        5.4156062465      -15.5270001283
 H         4.6557427034        5.2834166654      -16.7094739489
 H         4.5749915719        4.0309010767      -15.5739278538
 H         4.4771562576        5.2799588435      -21.3862708478
 H         5.6819405297        4.1447699607      -20.8905365003
 H         6.9757951326        6.1122222586      -19.8079227283
 H         5.6381361655        7.1574873161      -20.3944636185
 H        10.4012523770        4.1495726734      -20.1103899701
 H        10.8184387531        4.1698433963      -21.7931206138
 H        11.1969642841        1.8533933273      -20.9871160747
 H         9.9546262280        2.0315768167      -22.2618509880
 H         6.4118592320        0.1575255652      -23.0542118210
 H         5.9876490023        1.5245671083      -22.0622680372
 H         5.0147944249        0.1381962886      -21.8342237336
 H         8.3567485964       -0.9956248344      -22.7993003813
 H         9.8453896551       -0.3677932245      -22.5433143366
 H         8.6425565925        0.8950861355      -23.1237257992
 H        10.0962329610       -1.0870112926      -20.2511045019
 H         8.5135360028       -1.9381043106      -20.2557753715
 H         8.8094106273       -0.7239390849      -19.0637541376
 H         8.4202436016        4.7562261103      -24.1993025744
 H         9.9826103725        5.2775858492      -23.7615198597
 H         8.8596643492        6.5258723127      -24.1226767475
 H        10.3202277539        6.8285332695      -21.8170930274
 H         9.3231213574        6.6225620458      -20.3738080886
 H         8.8770824599        7.7145189248      -21.7193353457
 H         2.6374259479        2.1471963959      -19.4826106179
 H         4.4293868565        2.1713302866      -19.6897034556
 H         3.3884791693        3.1784908678      -20.7018558767
 H         2.6826935731        5.2798025923      -17.4098658722
 H         2.4650583848        3.4822363908      -17.1116761176
 H         1.6924195013        4.4081354077      -18.4254744417
 H         9.1570417095        4.5814630384      -13.9297789697
 H        10.1270308668        3.2819537472      -13.6530494788
 H         8.6406849748        3.2804945700      -12.8910739445
 H        10.3701122599        3.5136980104      -16.2302318244
 H         9.4102194772        4.8366676677      -16.0811719803
 H         9.1983598438        3.4460793136      -17.2328859839
 H         6.9102212900       -2.8200998981      -12.5940604413
 H         7.6250118503       -2.7378086215      -14.2031939824
 H         6.1797541409       -3.8525508730      -14.0191861605
 H         4.2219563031       -3.3820360954      -15.0571660991
 H         5.3475616300       -2.7027445341      -16.1745273259
 H         3.8763109934       -1.7621569183      -15.8580650594
 H         0.7011620167       -5.4030291827      -10.3714979623
 H         2.2148380256       -4.5899441312      -10.8521244407
 H         0.8126702138       -4.5170262825      -12.0047943567
 H        -1.2504037479       -2.1732520378       -9.8435374261
 H        -1.2068089963       -4.0064370628       -9.8757922497
 H        -1.2963202055       -3.0525429073      -11.3657944386
 H        -0.6822566343       -2.9616718945       -3.0215466558
 H         0.1048739205       -2.6886995371       -4.3953593948
 H         0.8751203356       -3.8049352060       -3.2865646214
 H        -1.3063552126       -6.8743490907       -3.9870853336
 H        -1.8713999401       -5.8257945813       -2.6947971859
 H        -0.2106846269       -6.1082525277       -2.8400120295
 H        -6.3157651230       -2.6318424809       -5.2659324266
 H        -6.1072934102       -1.5169372593       -3.8970568793
 H        -7.6477125631       -1.9871386062       -4.3813194174
 H        -7.6155821506       -3.3042603103       -1.5495090904
 H        -6.2774053542       -2.2182644095       -1.7704243223
 H        -5.9285082142       -3.7729029721       -1.2889385766
 H       -12.6201921105       -8.0571080205       -4.5976992888
 H       -11.8326720545       -8.6323428568       -3.1785807728
 H       -10.7591963653       -8.2720223151       -4.4052152366
 H       -12.8284140933       -5.9877544644       -5.3601499327
 H       -11.0042512998       -5.7668772335       -5.4427611664
 H       -12.0426902011       -4.6493033442       -4.6905266188
 H       -14.9665482997       -1.0477457389        0.8155824229
 H       -13.4671631089       -1.6182665115       -0.1352075250
 H       -13.5720378007       -2.1225068508        1.5150570791
 H       -15.1327880092       -4.2356112925        2.2236236637
 H       -16.4341898807       -4.5495467530        0.8274623859
 H       -16.4306066809       -3.0315470011        1.8613518607
 H       -14.3628257030       -4.2208425929       -6.4858048897
 H       -15.5238951590       -5.4503638300       -6.8246813247
 H       -14.9435474809       -5.4460074036       -5.2456059475
 H       -17.4655358247       -2.1695006802       -6.8926212830
 H       -16.7824729745       -3.3630923402       -7.8397165503
 H       -15.5788196505       -2.4606778119       -7.2156456173
 H       -21.7956460648       -7.5506235084       -4.3091382135
 H       -22.7651060240       -6.5194410897       -5.2388508098
 H       -23.3185391492       -6.8739905546       -3.5768637427
 H       -23.0193905458       -4.1332337116       -2.4640397479
 H       -23.5107115759       -4.2092914966       -3.9951410842
 H       -22.0393050138       -3.3276148899       -3.6014001374
 Na      -18.8134999581       -3.0489069413       -2.8028497187
 Na        7.1115674468        0.9841528939      -17.7862401554
