232

 C        -2.5882071773        6.7198902810      -13.1210645196
 C        -1.6642703374        6.7710005727      -14.3985135628
 O        -0.6466861723        6.2099445166      -14.2453312485
 C        -2.1138503937        7.3514161916      -15.7400834898
 C        -0.8789703858        8.1189681935      -16.3921705030
 O         0.0109250635        8.5796913950      -15.7302515660
 C        -0.9408759799        8.2820917281      -17.9910328872
 C         0.5631402132        8.3460903829      -18.4701624798
 C         1.4598448556        7.2738471794      -17.8766726479
 O         0.8864232483        6.1945865290      -17.6244915048
 C         2.9579868981        7.4455653773      -17.8878123009
 C         3.2235815565        7.5283024506      -16.3127247028
 O         2.5576833998        6.9336095000      -15.5245038305
 C         4.1604129249        8.6311279305      -15.7037724984
 C         5.4505870269        7.8675390091      -15.1230456633
 C         6.4140831525        7.6542505287      -16.3085933052
 O         6.4678976711        8.4785202110      -17.1855742038
 C         7.3753343299        6.4163660069      -16.2069587900
 C         6.9497980594        4.8960472896      -16.3280646082
 O         5.9410503406        4.5116096231      -16.8026543858
 C         8.0926355888        3.9155775270      -15.8346557125
 C         7.9154326655        2.4547977664      -16.3411955945
 C         7.0172314363        1.6867544198      -15.4081755818
 O         6.4650630248        2.2269380125      -14.4408403994
 C         6.7632190201        0.1501678923      -15.6672630866
 C         5.3358869501        0.1059658068      -16.2902147023
 O         5.2291578791        0.1523859385      -17.5246848413
 C         4.1436038371        0.3358346860      -15.2725565666
 C         2.8489724469        0.7384552070      -16.0645281113
 C         2.0816563807        1.9295240481      -15.3955307984
 O         1.9687419441        2.9793883131      -16.0587940434
 C         1.5476666030        1.9290029779      -13.8265911801
 C         0.0088093223        2.1577768173      -13.8548962215
 O        -0.5540335724        3.0296944524      -14.4821620447
 C        -0.9308706107        1.1617441745      -13.1452532897
 C        -2.4027390729        1.4143410176      -13.2787765417
 C        -3.0000260830        0.7356741495      -11.8930134166
 O        -2.9091484330        1.3385072985      -10.8424903502
 C        -3.6762645966       -0.6165154616      -12.0347917373
 C        -3.9997334207       -1.0209539936      -10.5001557490
 O        -3.1546653649       -1.6269443215       -9.8534185756
 C        -5.4059113978       -0.4651552341       -9.9200145641
 C        -5.6013416311       -0.5659318422       -8.4102275773
 C        -6.2125301051       -1.9651861907       -7.8727367330
 O        -6.3938271887       -2.8641612395       -8.6677388325
 C        -6.2145490988       -2.1439113700       -6.3402919711
 C        -5.1341150615       -3.2866536746       -6.0059703791
 O        -5.4830002289       -4.3810272158       -6.4578479764
 C        -3.7440288986       -3.1336046614       -5.4691449427
 C        -3.2498564675       -4.2704921429       -4.4920088721
 C        -4.3710385221       -4.9975947755       -3.6146430080
 O        -5.4240129489       -4.4267081506       -3.4846226724
 C        -4.1268846052       -6.2882653255       -2.8890559752
 C        -3.9647421005       -7.3312978259       -4.1007045636
 O        -2.8789568141       -7.6025455247       -4.6184344885
 C        -5.1087673144       -8.4055651836       -4.3041152749
 C        -5.1814191819       -9.1305392605       -5.6652919635
 C        -5.3897906570       -8.0594993082       -6.8203341496
 O        -5.8665526458       -6.9790826613       -6.5511126273
 C        -5.1664976390       -8.6644142656       -8.3148217297
 C        -6.1612820759       -7.6427862528       -9.2928081168
 O        -5.7845834028       -6.5230484675       -9.5875695617
 C        -7.5318154405       -8.1497583896       -9.8094894668
 C        -8.4286651042       -7.2721778129      -10.6055528538
 C        -8.7284092080       -5.8791113453      -10.0427144096
 O        -7.8798789413       -4.9938230860      -10.1143500715
 C       -10.0200562401       -5.6483296985       -9.1527302393
 C        -9.8079184640       -6.3629479226       -7.6995992148
 O        -8.7000514479       -6.2643674476       -7.1630839225
 C       -11.0007471131       -6.9670352136       -6.9451782961
 C       -10.6253803850       -7.2154004739       -5.5219973052
 C       -11.5729080560       -8.2242457069       -4.7316253048
 O       -12.7764468419       -8.0010807381       -4.7407823037
 C       -10.9573034081       -9.3487492299       -3.7297057594
 C       -10.5144518729       -8.4654884593       -2.4796986451
 O        -9.3899606876       -8.4568184243       -2.0586232524
 C       -11.5501769898       -7.6685038578       -1.7911305442
 C       -11.8778669422       -8.3649630146       -0.4503428263
 C       -13.2158839593       -9.1157794816       -0.2051664821
 O       -14.1167098482       -9.2031158032       -1.0067463696
 C       -13.4306028151       -9.5537402578        1.2807767292
 C       -12.2349707541      -10.4987551725        1.9126219972
 O       -11.2388387962      -10.6856168824        1.2640497376
 C       -12.5452906105      -11.1643238476        3.2672077106
 C       -13.2694895095       -8.2425390151        2.1485526167
 C       -14.8310034370      -10.1994221697        1.5487261575
 C       -12.1416233779      -10.2091513256       -3.3575669783
 C        -9.8808188430      -10.1664131567       -4.3636536647
 C       -10.2324572014       -4.1236209406       -8.8558902630
 C       -11.3157058217       -6.1326362388       -9.9400870033
 C        -3.7007637386       -8.2300590230       -8.7211834032
 C        -5.3512357995      -10.1703889160       -8.5680481181
 C        -2.7889290817       -6.3608939115       -2.1681435857
 C        -5.1959212570       -6.7251413615       -1.9717506927
 C        -6.0309563953       -0.8649986354       -5.4726734501
 C        -7.5948057124       -2.7102217457       -5.8818710844
 C        -5.0003991320       -0.6620796028      -12.8448770582
 C        -2.7383858454       -1.6977299773      -12.5939636396
 C         1.8593068637        0.7262269249      -12.9880282245
 C         2.1135140206        3.2678224896      -13.2469416655
 C         7.7818178920       -0.3904539381      -16.7382262283
 C         6.9514631079       -0.7404953478      -14.4687286216
 C         8.5935962518        6.5212222220      -17.1711794571
 C         7.9941623581        6.4911266880      -14.7249647587
 C         3.6259830153        6.1818259435      -18.4444290349
 C         3.3513581599        8.7666474972      -18.6134993262
 C        -2.5314720533        6.1367387033      -16.6801250753
 C        -3.3197676692        8.3416638233      -15.6602247225
 H        -3.3044582834        5.8957969047      -13.3671609217
 H        -3.2208679557        7.6230600504      -13.0657544101
 H        -2.1244451802        6.5969500551      -12.0969149211
 H        -1.4113766743        9.1963032986      -18.2145506372
 H        -1.4783796340        7.5770785050      -18.5849624622
 H         0.9710913453        9.3169702855      -18.2642987757
 H         0.4834248751        8.1319267032      -19.5616869385
 H         3.7212725542        9.3353105076      -15.0115657258
 H         4.5696972276        9.2741798088      -16.4222936493
 H         5.1812100825        6.9818898336      -14.5398827784
 H         5.9261931866        8.6040154468      -14.4544912766
 H         7.9314093919        3.8883001167      -14.7928196453
 H         9.0425751625        4.3043445149      -16.1388312698
 H         8.8654403469        1.9476296351      -16.3846727650
 H         7.4531826080        2.3917684406      -17.4164377790
 H         4.4780156006        1.0917897875      -14.5177147574
 H         3.8955038783       -0.6224098899      -14.7864549654
 H         2.0599565837       -0.0943999721      -16.1002385721
 H         3.0982728680        0.9263530340      -17.1520004150
 H        -0.6670316801        1.2674299228      -12.1495076140
 H        -0.7636434495        0.1226534116      -13.5903094952
 H        -2.8155377360        1.1772203085      -14.2882174638
 H        -2.7131797983        2.4834399256      -13.2566712809
 H        -6.2605697659       -0.8492645615      -10.4727671820
 H        -5.3251901225        0.6453950085      -10.1979068746
 H        -6.1054298351        0.3042713012       -8.0359228435
 H        -4.6917473569       -0.5757661253       -8.0409022234
 H        -3.5199228013       -2.1545246752       -4.9444985963
 H        -3.1343802336       -3.1618760295       -6.4155013327
 H        -2.5738916294       -3.8223704012       -3.8374746297
 H        -2.6653168221       -4.9341675234       -5.1776721541
 H        -6.1358886879       -8.2018614744       -4.1735439363
 H        -4.9430119181       -9.1272227561       -3.5794500564
 H        -5.9036281299       -9.9763804928       -5.6466656921
 H        -4.3303714774       -9.5725195435       -5.8567917518
 H        -7.9864647753       -8.5459827360       -8.8736194650
 H        -7.3734407301       -9.0192521400      -10.3853402429
 H        -9.3965685728       -7.8241075780      -10.7124289656
 H        -7.9914332617       -7.1779886314      -11.6334980318
 H       -11.1646980283       -7.9128806134       -7.4399838528
 H       -11.9018825200       -6.3386029204       -7.0422215609
 H       -10.6087381766       -6.2562855064       -4.9764252245
 H        -9.5586772843       -7.5060746777       -5.5622396203
 H       -12.4285021417       -7.4503043350       -2.4039152558
 H       -11.2634247577       -6.6979188904       -1.6040965571
 H       -11.9749552585       -7.5559202092        0.2923078668
 H       -10.9728537213       -8.8925744218       -0.0241768316
 H       -11.5622578340      -11.2677669033        3.8410138207
 H       -12.9638157562      -12.1923832465        3.2028871558
 H       -13.2897184194      -10.6047633675        3.9297329190
 H       -14.2265323675       -7.5791534459        2.3205873290
 H       -12.6096076621       -7.6216504021        1.5588059779
 H       -12.7730816199       -8.4769536955        3.1978037718
 H       -14.8967218937      -10.8700905822        2.4629018783
 H       -15.1304003629      -10.6998385065        0.6277714082
 H       -15.5343883483       -9.4070822054        1.6985027023
 H       -11.8555392492      -10.8581573562       -2.5290675959
 H       -12.4041367594      -10.7440848157       -4.3504094366
 H       -12.9180044897       -9.5316855744       -3.0049215909
 H        -8.9591162948       -9.5689478590       -4.5201762417
 H        -9.9166161331      -10.4547083403       -5.4143836246
 H        -9.6913116729      -11.0820274612       -3.8383137681
 H        -9.6055479955       -3.4084929716       -9.4746081801
 H       -10.2142240696       -3.7757680877       -7.8347310987
 H       -11.2504889190       -3.8907712251       -9.2118802671
 H       -11.4436084152       -5.6972438543      -10.9469655245
 H       -12.1466261889       -5.6553934465       -9.4153967726
 H       -11.4258914755       -7.1592261191       -9.9411306691
 H        -3.0366042959       -8.9532922709       -8.3246379449
 H        -3.4898072497       -7.2191834996       -8.2963563670
 H        -3.6420531378       -8.1435225787       -9.7990348967
 H        -4.7606524764      -10.6665532270       -7.9114341659
 H        -5.1581740297      -10.3390537905       -9.6512387521
 H        -6.4136192925      -10.4858736545       -8.3550861924
 H        -2.7200687254       -5.5110966439       -1.4977997968
 H        -2.0555255439       -6.1582378282       -2.9118744515
 H        -2.6348170514       -7.2808400811       -1.6135459278
 H        -5.0616277480       -6.2274016428       -0.9499736683
 H        -5.0098861735       -7.7781055174       -1.6407317464
 H        -6.2105236204       -6.5660976992       -2.2758584176
 H        -6.1255263903       -1.1865756630       -4.4339050822
 H        -6.8725779820       -0.1471065820       -5.5777816786
 H        -5.0050041931       -0.4381974002       -5.6497205342
 H        -7.9694089016       -3.5069216761       -6.5228367294
 H        -8.2107623597       -1.7974293816       -5.8099334665
 H        -7.5063148448       -3.1789306489       -4.9502008274
 H        -5.3511890547       -1.7221961256      -12.8936944347
 H        -4.8343404113       -0.2878289436      -13.8727691727
 H        -5.9329484946       -0.1549765974      -12.4342406986
 H        -3.2065853676       -2.6579682561      -12.7764148531
 H        -2.0009279493       -1.9967756109      -11.8532132872
 H        -2.3552074643       -1.3762227159      -13.5734051768
 H         1.5735303476       -0.2368509858      -13.4156333522
 H         1.3169146267        0.9667355502      -11.9649865553
 H         2.8734073285        0.7415087675      -12.7673138737
 H         2.4069243015        3.1445787441      -12.1966339015
 H         1.3792319783        4.0769128548      -13.2977904572
 H         2.9741092185        3.6081561958      -13.7399630692
 H         7.5709394883        0.2803637341      -17.6077193135
 H         7.4428675697       -1.3684035759      -16.9704111284
 H         8.7723904736       -0.3454567007      -16.4272938385
 H         7.9870488598       -0.8330323196      -14.1506748364
 H         6.7080714418       -1.7320360619      -14.8508809388
 H         6.1988656717       -0.5241154617      -13.6936088189
 H         9.4499777228        6.1469873932      -16.6175435974
 H         8.9364072651        7.4818959737      -17.3721456715
 H         8.3789497916        6.0683709285      -18.1589249860
 H         7.3270191129        6.2351789232      -13.9361482351
 H         8.4477186117        7.5070290929      -14.4099898157
 H         8.9025085586        5.7917453764      -14.7665780520
 H         3.2274109407        5.8489563281      -19.4471897744
 H         3.1880502148        5.5131874410      -17.7074052325
 H         4.6884363692        6.2095269063      -18.4572645291
 H         3.3266163806        9.7087620008      -18.1012196589
 H         2.7753140307        8.8835729856      -19.5439438961
 H         4.3436192391        8.6611027668      -19.0160040632
 H        -1.6733358400        5.7570082323      -17.1771355936
 H        -3.3073535989        6.5505945312      -17.3683047653
 H        -3.0669574365        5.3761941077      -16.1009694208
 H        -3.0477667594        9.2111783232      -15.0032599719
 H        -4.0856057693        7.8066958595      -15.0910357366
 H        -3.6905481081        8.4039762102      -16.6518059172
 Na        0.9334664615        5.0965741386      -15.5710798438
 Na       -6.8004704608       -5.1901355733       -8.0352866653
