232

 C        -2.5321192517        7.1215476488      -13.1621858600
 C        -1.7102840995        6.8736864639      -14.4002560343
 O        -0.6459832273        6.2190106523      -14.2624722569
 C        -2.2189874269        7.3565746247      -15.7656816342
 C        -1.0618372963        8.2430653246      -16.3890926743
 O        -0.2525324374        8.7310780247      -15.6408093418
 C        -0.9981093564        8.3774347190      -17.9407872277
 C         0.5128120248        8.5501436992      -18.3034394831
 C         1.3037168758        7.3035833384      -17.9920250065
 O         0.7861437757        6.2559728104      -17.7420457343
 C         2.8861195216        7.4543063450      -17.9206099945
 C         3.2103578587        7.4955464014      -16.2903535743
 O         2.7123777412        6.6498338703      -15.5437044425
 C         4.1437629821        8.5133796097      -15.7197317900
 C         5.4179817797        7.8912765681      -15.2256827560
 C         6.5165169877        7.6182103151      -16.3087488235
 O         6.7591345967        8.3542194545      -17.2387335824
 C         7.6216846039        6.5285000040      -15.9489793966
 C         7.1005137454        5.0833384368      -16.2696359939
 O         6.0342517991        4.8775278097      -16.8371976030
 C         7.9829505471        3.8468113225      -15.7912446090
 C         7.6028449286        2.4998478789      -16.4151321890
 C         6.9539190400        1.5319476649      -15.4164173936
 O         6.6585407516        1.8869127466      -14.3080465640
 C         6.7431885510        0.0562894251      -15.8298658336
 C         5.2713220589        0.0563288837      -16.4931106306
 O         5.0979881404        0.0570583766      -17.6485056545
 C         4.1384592204        0.1171739175      -15.4858143383
 C         2.8179052098        0.7016050434      -16.0505467237
 C         2.2587331646        2.0199902547      -15.4898955206
 O         2.1085683376        3.0506636684      -16.0928081155
 C         1.6796250313        1.9112363365      -14.0388055980
 C         0.0792145629        2.0768165127      -14.0209274071
 O        -0.3655640672        2.9762071984      -14.7045470420
 C        -0.7634325390        1.0497479735      -13.3788721395
 C        -2.3276495203        1.2364454866      -13.3049621873
 C        -2.9605340594        0.6066607854      -11.9748510168
 O        -2.8492500906        1.2213649817      -10.9304915767
 C        -3.8367840119       -0.7036617029      -11.9929745366
 C        -4.1507108928       -1.0623944220      -10.4319224303
 O        -3.2833899754       -1.5809581051       -9.7668674248
 C        -5.5262287213       -0.5453415610       -9.8859377782
 C        -5.6613040999       -0.6176052960       -8.3378890085
 C        -5.9347582950       -2.0034105841       -7.7782307636
 O        -6.3103152382       -2.9050793735       -8.4910904523
 C        -6.1489773720       -2.2074448439       -6.2123957207
 C        -5.2025990267       -3.3704125880       -5.8448207595
 O        -5.3288374619       -4.4808442441       -6.2343982845
 C        -3.8663487980       -3.0355038117       -5.2122760477
 C        -3.3226958427       -4.2999867112       -4.5233745391
 C        -4.4183461677       -4.8461652262       -3.6779424885
 O        -5.4352550750       -4.1964256404       -3.4667237330
 C        -4.1504260312       -6.2217228979       -2.9432995964
 C        -4.0005134970       -7.3538156014       -4.2230278899
 O        -2.9491378518       -7.3631301245       -4.8566193780
 C        -5.0449309193       -8.3888341577       -4.3410448360
 C        -5.0001905365       -9.1245087794       -5.7133353873
 C        -5.4730783443       -8.1696335562       -6.7870600242
 O        -6.0094372193       -7.1051830277       -6.6168873004
 C        -5.1718313128       -8.7272693134       -8.2569557966
 C        -6.0586960116       -7.8496811465       -9.2292584293
 O        -5.7139731796       -6.7379862909       -9.5013056071
 C        -7.5252450544       -8.2978122966       -9.6403357746
 C        -8.2903628591       -7.1973262289      -10.4559555743
 C        -8.7059317324       -5.8689526669       -9.8742468533
 O        -8.0733242895       -4.8786776039      -10.0623535490
 C       -10.1495302827       -5.7196931463       -9.0984787693
 C        -9.8616337162       -6.3636422359       -7.7420812974
 O        -8.7754401271       -6.2854849019       -7.2407805523
 C       -11.0013204678       -7.2085790282       -6.9957640311
 C       -10.6748666962       -7.3299390796       -5.4591404910
 C       -11.6873158253       -8.2555106029       -4.8550340887
 O       -12.8661644521       -8.1565243651       -5.0816573176
 C       -11.0586916749       -9.2582108228       -3.8214861711
 C       -10.6092405475       -8.5804157388       -2.5276274772
 O        -9.4346230288       -8.6707127362       -2.2599893106
 C       -11.5976658337       -7.7362977965       -1.7545593229
 C       -11.7133007107       -8.0399843931       -0.2669183451
 C       -13.1098460673       -8.7411518277        0.0143967916
 O       -13.8062857990       -9.1528771496       -0.9105501576
 C       -13.3959753322       -9.2116360663        1.5316377713
 C       -12.2335494865      -10.3587138718        1.8149287647
 O       -11.1625038450      -10.3186203304        1.2557921903
 C       -12.5458011926      -11.5019286699        2.7344118537
 C       -13.2332101110       -8.0815370366        2.6032628417
 C       -14.8173754968       -9.8925698609        1.5338341800
 C       -12.2114591567      -10.3064523767       -3.3680571165
 C        -9.9238411642      -10.0001917661       -4.3927961926
 C       -10.2925174287       -4.1494010928       -8.8989708974
 C       -11.3325526943       -6.3061997423       -9.7951167215
 C        -3.6890161616       -8.4118470245       -8.4787420773
 C        -5.6309868686      -10.2754425788       -8.3897988849
 C        -2.9252392671       -6.2471103852       -2.0988484910
 C        -5.4803025560       -6.5349345924       -2.1596615812
 C        -5.7601553165       -0.9465809389       -5.4735071927
 C        -7.6398413449       -2.5615665295       -5.9112363990
 C        -5.1025735878       -0.7063342969      -12.9156713593
 C        -2.7476329447       -1.6625600826      -12.5504658894
 C         2.2269108860        0.6576736449      -13.2144687789
 C         2.1693543754        3.2147994831      -13.2086769749
 C         7.7122553077       -0.5087959687      -16.8901392930
 C         6.7813094678       -0.7468826263      -14.4897480793
 C         8.6871903063        6.7925598281      -17.0700213505
 C         8.2054850784        6.7522201856      -14.5762688241
 C         3.6910295526        6.2220553461      -18.5184173006
 C         3.4363938160        8.8099276447      -18.6167406742
 C        -2.4886886955        6.1308417022      -16.6757497359
 C        -3.4979561460        8.1879323049      -15.6518826398
 H        -3.5851487414        7.1071343927      -13.3802651286
 H        -2.2778546374        8.0194420306      -12.6192045985
 H        -2.2925329488        6.3455554235      -12.4888575433
 H        -1.5557135267        9.2495418550      -18.3962067914
 H        -1.4657407235        7.4827289694      -18.3737646574
 H         0.8744307462        9.3894686651      -17.6079720314
 H         0.6312980695        8.8985003856      -19.3331342314
 H         3.5738723657        8.9433453118      -14.8648554105
 H         4.3765571727        9.4627515114      -16.2905226721
 H         5.1503255033        6.9351567598      -14.7536289253
 H         5.7959246292        8.5110353766      -14.4127772373
 H         7.8265263868        3.7536072045      -14.6860522250
 H         9.0094288985        4.0727424197      -16.0958413706
 H         8.5169730838        2.0901112241      -16.8645764661
 H         6.9322545799        2.6131902759      -17.1794301486
 H         4.5839586814        0.8143361538      -14.7659592471
 H         3.8558587055       -0.8483770557      -15.0718174346
 H         2.0694409667       -0.0431420597      -15.9875014147
 H         2.9677515838        0.8116538186      -17.1286717700
 H        -0.3718321874        0.9704565205      -12.2959603055
 H        -0.5658068966        0.1744926814      -13.9132414496
 H        -2.9702885822        0.9040559776      -14.1602884450
 H        -2.6321731325        2.3018081139      -13.1576704489
 H        -6.3122222428       -1.1502003811      -10.3854594678
 H        -5.6732300541        0.4169775812      -10.2724002251
 H        -6.4771490275        0.0707590962       -7.9656195953
 H        -4.6041485165       -0.3171684615       -7.8241382772
 H        -3.8341083691       -2.2548468504       -4.4827896009
 H        -3.2273479918       -2.6938922817       -6.0503254839
 H        -2.4505671061       -4.0014901696       -3.8282481268
 H        -2.8754776000       -4.9515427708       -5.2183311745
 H        -6.1224843958       -8.1338199107       -4.2497858145
 H        -4.9355987116       -9.1993496299       -3.5150340025
 H        -5.6347506016      -10.0190120604       -5.7680251746
 H        -3.8892667576       -9.6008457817       -5.9470775176
 H        -8.1092981140       -8.6638081025       -8.7692681132
 H        -7.2699716941       -9.2117418695      -10.3246499047
 H        -9.2247215493       -7.6213879803      -10.8764309150
 H        -7.6826604796       -6.8947253439      -11.3270125790
 H       -11.0662760534       -8.2370144726       -7.4656283105
 H       -11.9732669417       -6.7234368247       -7.1373290609
 H       -10.6559176591       -6.3741247843       -4.9574902876
 H        -9.6471230338       -7.6471349658       -5.3876033124
 H       -12.5751196610       -7.6090479454       -2.1870690740
 H       -11.2396150025       -6.6699822568       -1.9619133522
 H       -11.5846879825       -7.2014279653        0.3956280259
 H       -10.9350575798       -8.7015439844        0.0333810430
 H       -11.7076476254      -12.1622192896        2.8107259632
 H       -13.3119982684      -12.0876761178        2.2451730482
 H       -12.8465793835      -11.2750916938        3.7589854280
 H       -13.1527095364       -7.1653984094        2.1372927146
 H       -12.2935711325       -8.1287512465        3.1686130564
 H       -14.0433067323       -8.1327241904        3.2237186426
 H       -15.2330947117      -10.0229426133        2.5018310890
 H       -14.6820540087      -10.8108527439        0.9233525378
 H       -15.6169043124       -9.3219827854        0.9815347186
 H       -11.8286241697      -10.7035188059       -2.4318199874
 H       -12.2245591581      -11.0262547844       -4.1024629049
 H       -13.1402306114       -9.8218050140       -3.1728900178
 H        -9.0216364676       -9.4586233269       -4.6250355276
 H       -10.1089893835      -10.4674407841       -5.3321050609
 H        -9.5667392352      -10.8031667269       -3.7402009657
 H        -9.9009042789       -3.6247101835       -9.7658138965
 H        -9.6337994268       -3.8239027647       -8.0421362414
 H       -11.3144352565       -3.7517580857       -8.7243695587
 H       -11.4388301399       -5.9131097293      -10.7988410988
 H       -12.2727052049       -6.0109986577       -9.3883918937
 H       -11.3437623917       -7.4402520010       -9.7604244447
 H        -3.1898111387       -8.5103835524       -7.4709507040
 H        -3.6162146827       -7.3828721725       -8.8002273914
 H        -3.3142662843       -8.9666890559       -9.3490890944
 H        -4.8311999408      -10.9278337178       -7.8670479020
 H        -5.6786303600      -10.4983194102       -9.4506289106
 H        -6.5902866190      -10.4849069501       -7.9800513435
 H        -2.9923367770       -5.5925787934       -1.2328144133
 H        -1.9472291725       -6.1067793536       -2.6524688800
 H        -2.8976834761       -7.2847152955       -1.7514087784
 H        -5.6059273333       -5.8694011322       -1.3565719307
 H        -5.5160202338       -7.4947035797       -1.6807170800
 H        -6.3806353233       -6.3383133561       -2.7871544137
 H        -5.8518399488       -1.0458317431       -4.4062227520
 H        -6.5725920270       -0.3449867713       -5.7618486787
 H        -4.8225088684       -0.5352452585       -5.6627401073
 H        -8.0350023643       -3.0324724154       -6.7777702990
 H        -8.1203301168       -1.6685045068       -5.6122700800
 H        -7.7481920671       -3.3172455510       -5.0897513524
 H        -6.0144687508       -0.8723726160      -12.3719597246
 H        -4.9690096047       -1.3609794323      -13.7554548150
 H        -5.3198375398        0.2385305855      -13.3105309071
 H        -3.0117422916       -2.7229624688      -12.4051850378
 H        -1.7717804750       -1.6023028695      -12.0589270574
 H        -2.7654772476       -1.5397530686      -13.6224028691
 H         2.0676370030       -0.2578404737      -13.8118722533
 H         1.7539735213        0.5744738484      -12.3078463677
 H         3.3266228554        0.7866412987      -12.9750968373
 H         1.8117656741        3.1413095320      -12.2046947076
 H         1.8631639319        4.1806113015      -13.6139539119
 H         3.2989161916        3.2326745067      -13.1004076012
 H         8.0781113750        0.1417060152      -17.6653888791
 H         7.1635042780       -1.3737790517      -17.3216225679
 H         8.5158625927       -0.9668191932      -16.2334852883
 H         7.7996228816       -0.5301808245      -14.0386430059
 H         6.7259971379       -1.8033094122      -14.6113582274
 H         5.9970086269       -0.4075352982      -13.8057389551
 H         9.4805008338        6.0692064290      -17.0225669079
 H         9.2521618499        7.7550281634      -17.1365511918
 H         8.0789895795        6.7451969273      -17.9704239969
 H         7.3839657105        6.5681430284      -13.8386278553
 H         8.5092242943        7.7328838038      -14.3781132109
 H         8.9649396579        6.1251301586      -14.3751479835
 H         3.6518985614        6.2575894493      -19.5386199611
 H         3.2297894825        5.2643751649      -18.1726385154
 H         4.7376955104        6.3705423736      -18.2547576899
 H         2.6637205808        9.5136034104      -18.2369928463
 H         3.4266993678        8.8454821601      -19.7034775036
 H         4.4438815068        9.1503521515      -18.3468169521
 H        -1.5690451446        5.4358565731      -16.6775548895
 H        -2.8111473151        6.4938423276      -17.6616100325
 H        -3.3708774597        5.6183467630      -16.2532380584
 H        -3.3243081237        8.7859351200      -14.8097837376
 H        -4.4183644461        7.6195018826      -15.5528428058
 H        -3.5301934828        8.7863832313      -16.5775634240
 Na        0.9597601359        4.9543845777      -15.4893123147
 Na       -6.8274702221       -5.1312013650       -7.8769066171
