232

 C        -1.8462453889        7.7490351435      -13.2043179299
 C        -1.5790786954        6.8472087348      -14.4770541442
 O        -0.7670254723        5.9944099055      -14.3257880469
 C        -2.3087202036        7.2098322399      -15.9103533734
 C        -1.3139261539        8.3963955349      -16.4525797651
 O        -0.7474299932        9.1007325011      -15.6394983848
 C        -0.9746982117        8.5411840467      -17.9724353341
 C         0.5124658040        8.6592268616      -18.0209771782
 C         1.2197239668        7.4347877156      -17.7188554867
 O         0.5848046752        6.4431482130      -17.4051065536
 C         2.7775715533        7.3724373846      -17.7199937345
 C         3.2701528643        7.0769720673      -16.2337175283
 O         2.7853172488        6.1765413617      -15.5549085310
 C         4.1889891675        8.1446523548      -15.5867537219
 C         5.5969248823        7.6576399782      -15.0622621610
 C         6.7616748856        7.6238914934      -16.0659410465
 O         6.7139461195        8.1982782645      -17.1367997714
 C         7.8992108856        6.5755172365      -15.8701297731
 C         7.2603953154        5.1801406770      -16.2337691223
 O         6.3148812233        5.0609558826      -16.9621445438
 C         7.8032775140        3.8237114697      -15.6650347043
 C         6.9996502131        2.7217066996      -16.2700849713
 C         6.9968675066        1.4646288500      -15.4235633495
 O         7.0830123554        1.4831901816      -14.1894173881
 C         6.6848009004        0.0848732117      -16.2002378051
 C         5.2827397212        0.0905202657      -16.7539052183
 O         4.9966091532        0.1202063459      -17.9494042773
 C         4.1298836595        0.2754925634      -15.7041542861
 C         2.8332471854        0.8263170574      -16.2214412783
 C         2.2966990447        2.0682872302      -15.5254625105
 O         2.1756796464        3.1310585078      -16.1844017186
 C         1.8106781684        1.9549664533      -13.9826825729
 C         0.1805437904        2.0658624519      -14.0983151001
 O        -0.4055514155        2.7914887294      -14.8679404042
 C        -0.6488290767        1.0270307599      -13.1465709897
 C        -2.1560773474        0.9877855320      -13.6063774078
 C        -2.8465634533        0.5617253502      -12.2246626343
 O        -2.6258192139        1.2060321173      -11.2352278152
 C        -3.7260412493       -0.7487724923      -12.0609907519
 C        -4.0603979325       -0.9937259895      -10.5144045288
 O        -3.2655609005       -1.4848737056       -9.7534932522
 C        -5.4322270724       -0.4627949536      -10.1010213747
 C        -5.6776459926       -0.4527785890       -8.5743935601
 C        -5.9471840375       -1.9037925392       -7.8761196911
 O        -6.2337866940       -2.8778255966       -8.5368532533
 C        -5.8530028047       -2.0057834277       -6.2615582194
 C        -4.8421535389       -3.1291896784       -5.8701598631
 O        -4.8617063490       -4.2107034433       -6.4831599392
 C        -3.6651415633       -2.8880068574       -4.8823380630
 C        -3.3452802529       -4.0313991515       -3.9702899302
 C        -4.4994715611       -4.6362839515       -3.3381652442
 O        -5.4664500861       -3.9644687817       -3.0297135298
 C        -4.5256258809       -6.1960413638       -2.9249497699
 C        -4.3252400042       -7.1109421973       -4.1411217268
 O        -3.5870294760       -6.7433899912       -5.0503019687
 C        -5.0423402544       -8.3959842390       -4.1659369061
 C        -4.9689184215       -9.0968598331       -5.5645412327
 C        -5.6042590622       -8.4083021820       -6.6760298239
 O        -6.3238030826       -7.4523495111       -6.4321690432
 C        -5.4684026031       -9.0180785353       -8.1600659811
 C        -6.2794249485       -7.9263767991       -9.0357226356
 O        -5.7287119098       -6.8794482576       -9.3615092393
 C        -7.6315286714       -8.3240622200       -9.6031644174
 C        -8.1932809259       -7.2325592352      -10.5334421638
 C        -8.8116606455       -5.9971828446       -9.7619356832
 O        -8.0686321919       -4.9773002581       -9.7614099316
 C       -10.1878971437       -5.9391636813       -9.0709306754
 C        -9.8627112150       -6.3746670123       -7.5360865769
 O        -8.8557133743       -5.9765524953       -6.9402426322
 C       -10.9022516131       -7.2747798766       -6.9276304438
 C       -10.9022069649       -7.3584381089       -5.4030890203
 C       -11.8684802910       -8.4594330000       -4.9299996226
 O       -12.8932421679       -8.6867588562       -5.5502794525
 C       -11.4066123799       -9.3723436030       -3.7251421553
 C       -10.8071058536       -8.4504693612       -2.6160817136
 O        -9.7440078013       -8.7390930760       -2.0662520800
 C       -11.6082916575       -7.3004237442       -2.0098774155
 C       -11.7199830474       -7.5562750633       -0.4101686980
 C       -12.9034465470       -8.4574961324        0.0334733734
 O       -13.7077264787       -8.8518353632       -0.7586126992
 C       -13.0339060862       -8.9464252704        1.5062257605
 C       -12.1058298834      -10.2572164510        1.7255188929
 O       -10.9396900576      -10.0696967700        2.0379063949
 C       -12.7244880679      -11.6386511867        1.5173602140
 C       -12.2592758361       -7.7876560805        2.2672880959
 C       -14.4830942685       -9.2683644678        1.9917601006
 C       -12.6176960017      -10.2638022332       -3.1208761932
 C       -10.2531279673      -10.3924798833       -4.2251475417
 C       -10.7257800734       -4.5384244723       -9.3468896866
 C       -11.1080256688       -6.9813725665       -9.7529592621
 C        -3.9506118764       -8.8731214395       -8.5598793581
 C        -5.9333712340      -10.4838845192       -8.2282573006
 C        -3.1171734571       -6.5435409011       -2.1110341888
 C        -5.7446066847       -6.4290483298       -1.9831619885
 C        -5.5048322919       -0.6637374899       -5.5916434815
 C        -7.2519721801       -2.3973681977       -5.7694505995
 C        -5.0028452740       -0.6132342039      -12.8884415054
 C        -2.8642884088       -1.9527235621      -12.6757300849
 C         2.2896006125        0.6607734575      -13.3930427453
 C         2.1436398366        3.1430230697      -13.0947063614
 C         7.8101385908        0.0451868197      -17.3713368268
 C         6.8592649899       -1.0613953768      -15.1808820127
 C         8.9949303498        6.8940452192      -16.8637752052
 C         8.4612742022        6.5603974451      -14.4242048035
 C         3.1186512369        6.0508056871      -18.6317026233
 C         3.5093033491        8.5945961734      -18.3454637709
 C        -2.4562484042        6.0253237730      -16.9272258461
 C        -3.7344678219        7.7331733433      -15.5142585542
 H        -1.1769166859        8.5793674085      -13.3144424910
 H        -1.7276095136        7.2356707478      -12.2830679928
 H        -2.8779007711        8.0806088014      -13.1439848415
 H        -1.5041261478        9.5255110384      -18.1841893936
 H        -1.3354208811        7.7493907606      -18.6771676344
 H         0.8704204945        9.3593178154      -17.2560467799
 H         0.8525855615        9.1526125440      -18.9716947523
 H         3.6114894366        8.5061263042      -14.6781184114
 H         4.2974447486        8.9829497334      -16.2932158684
 H         5.4878267817        6.6571574849      -14.5913343306
 H         5.8388387150        8.2302157107      -14.1758618923
 H         7.6837415634        3.7154893361      -14.5510291760
 H         8.8632450097        3.6429705117      -15.8782040703
 H         7.2256055555        2.5998772329      -17.2610509624
 H         5.9599046137        2.9891944023      -16.1907458246
 H         4.5300427192        1.0323562739      -14.9713281493
 H         4.1036018308       -0.7311827669      -15.3237693640
 H         2.0607946035        0.1113316465      -16.1567064094
 H         3.0062650746        1.0000241970      -17.2787714965
 H        -0.4750254800        1.3876182500      -12.1231446175
 H        -0.2517440916       -0.0191692628      -13.1535135574
 H        -2.2649997253        0.2160433035      -14.4004242388
 H        -2.4054271354        2.0524720104      -13.6078920247
 H        -6.2332640364       -0.8610279066      -10.7002657531
 H        -5.4073697510        0.5760805095      -10.4489062635
 H        -6.7667267687        0.0454157810       -8.4117084758
 H        -4.9558576250        0.1742105604       -8.0674941798
 H        -3.7975490875       -2.0052114744       -4.3041527957
 H        -2.7847843883       -2.6219880648       -5.4475699130
 H        -2.5672480682       -3.8047658657       -3.2030492792
 H        -2.8756435577       -4.8283699832       -4.6065006069
 H        -6.1674581603       -8.4720945218       -4.0112771707
 H        -4.6820043494       -9.1271788946       -3.3744346898
 H        -5.4948441286      -10.1716047272       -5.5744695516
 H        -4.0159509927       -9.3606400096       -5.8288234606
 H        -8.2403880684       -8.4637880651       -8.6337885257
 H        -7.4244111734       -9.1695802120      -10.2331378892
 H        -8.8587342951       -7.7116479290      -11.2391801541
 H        -7.3706159878       -6.8331722587      -11.1578234607
 H       -10.5094974757       -8.2758629741       -7.2849933066
 H       -11.8743469176       -7.2619901085       -7.4193127952
 H       -11.1876564817       -6.4140789554       -4.9472615000
 H        -9.8859095881       -7.5971899677       -5.0787970783
 H       -12.6523593833       -7.2424313717       -2.4945424851
 H       -11.1824196235       -6.2981123888       -2.1318242007
 H       -11.8115050222       -6.6035920823        0.0675167834
 H       -10.8047415554       -7.9895608083       -0.0843364240
 H       -11.9253183153      -12.3640538190        1.4755391040
 H       -13.4115289705      -11.8253820686        0.7086485507
 H       -13.1186174316      -11.9504183308        2.4959745068
 H       -12.4768418956       -7.8274414610        3.3060881441
 H       -12.3220700097       -6.8619617912        1.8628550546
 H       -11.1792587380       -8.0416283702        2.1422398553
 H       -14.4668224307       -9.9584870251        2.9073930739
 H       -15.0476759450       -9.8526795153        1.2363288726
 H       -15.0978840613       -8.4029050233        2.2705531215
 H       -12.1696863950      -11.0996320885       -2.7184334065
 H       -13.1956582167      -10.5672232872       -4.0077080391
 H       -13.2063146280       -9.6706730276       -2.4645071625
 H        -9.3302685333       -9.9569434111       -4.5657963560
 H       -10.6113465324      -11.0685816727       -4.9611386462
 H        -9.7936323991      -11.0252389710       -3.5416848577
 H       -11.3465201333       -4.5010043835      -10.2918162609
 H        -9.9913157008       -3.7645334547       -9.5124650405
 H       -11.4642428700       -4.1690074803       -8.6154825443
 H       -10.9488546140       -6.9361863270      -10.8614161972
 H       -12.1940677976       -6.7751484620       -9.5616052974
 H       -11.0621114343       -8.0154296619       -9.6004244074
 H        -3.3307299574       -9.2298813348       -7.7443121053
 H        -3.6517724603       -7.7610246713       -8.6304022494
 H        -3.7426395632       -9.3528118457       -9.5377262174
 H        -5.2241490201      -11.0745183185       -7.7914081917
 H        -5.9566679742      -10.8937129787       -9.2798215688
 H        -6.9027323514      -10.4689093863       -7.7205331425
 H        -3.0539889648       -5.9401355215       -1.1922109816
 H        -2.2998270772       -6.3666511981       -2.7917618682
 H        -2.9198910882       -7.5626350764       -1.8487457690
 H        -5.4950986840       -5.8540628431       -1.0721241530
 H        -5.9160962301       -7.4735613592       -1.6713255238
 H        -6.6733337086       -6.0297738920       -2.2770891197
 H        -5.4327679355       -0.7365959511       -4.5477087976
 H        -6.2292578862        0.0652188546       -5.8960154819
 H        -4.5834503196       -0.2498663872       -5.9803486897
 H        -7.4220177246       -3.4465668659       -5.9840842709
 H        -8.0585587714       -1.8864328891       -6.3095771748
 H        -7.3357214408       -2.1388337517       -4.7552215254
 H        -4.6059838127       -0.7282501304      -13.8997089940
 H        -5.3784656635        0.3904459728      -12.8055516756
 H        -5.7894845349       -1.3651681404      -12.7398120096
 H        -3.4705934686       -2.7070569212      -13.1951617701
 H        -2.2907263412       -2.3346282635      -11.8228872902
 H        -2.0846557307       -1.5949430265      -13.3880433634
 H         2.2644381253       -0.1493733181      -14.0837726128
 H         1.6319162366        0.2643812546      -12.5293691684
 H         3.2810097556        0.8044088127      -13.1088913529
 H         1.9324159650        2.9690957190      -12.0331433941
 H         1.5181098684        4.0042634322      -13.4037059064
 H         3.1810962006        3.4157227079      -13.1590737702
 H         7.2147363201        0.4184444484      -18.2978318216
 H         8.2527099668       -0.9185752962      -17.6374766154
 H         8.6380538710        0.6966074561      -17.1477727469
 H         7.8710449665       -1.1379241651      -14.8581119737
 H         6.4742497097       -2.0325970665      -15.5633313058
 H         6.3504135942       -0.8561307576      -14.2264189208
 H         9.8627909293        6.2172514033      -16.7092643011
 H         9.2195266093        7.9258519161      -16.6875114282
 H         8.7583059649        6.8162283121      -17.9619680365
 H         7.9051051682        6.2456922366      -13.6703092125
 H         8.8907049881        7.4973337557      -14.1813291310
 H         9.3313371238        5.8782324945      -14.3917218728
 H         2.5040334335        6.0383886408      -19.5860180370
 H         2.8500404263        5.2721380043      -17.9819268115
 H         4.1439883303        6.0045125642      -18.8487184375
 H         3.1779040926        9.6203486818      -18.1537919535
 H         3.4387027369        8.3867328321      -19.4492457956
 H         4.5040905550        8.4561618282      -17.9580718854
 H        -1.5114551505        5.5214978307      -17.0574670689
 H        -2.8078267331        6.5294660028      -17.8952709593
 H        -3.1944880246        5.3396845914      -16.4362791464
 H        -3.7128673762        8.5985878954      -14.8456032400
 H        -4.1285198809        6.8311806171      -15.1772639386
 H        -4.2336039495        8.1083989051      -16.3559555755
 Na        0.6780136216        4.7762826933      -15.7847676510
 Na       -6.5569694119       -5.1959096000       -7.7688730796
