232

 C        -1.4059335155        7.7413577507      -13.4001283652
 C        -1.4565287421        6.8512452231      -14.5861927122
 O        -0.9930180957        5.7294681527      -14.6064953002
 C        -2.2252832871        7.2903833766      -15.8682700283
 C        -1.4076291208        8.5347116161      -16.3156254674
 O        -1.2197695965        9.4619485721      -15.5953229255
 C        -0.9964089848        8.6099482423      -17.8230501406
 C         0.5301989865        8.6172059981      -18.1317527980
 C         1.1472754286        7.3397962653      -17.6354808086
 O         0.5594904807        6.4583762215      -17.0862084513
 C         2.7685933467        7.2455057322      -17.6110787515
 C         3.2758958146        7.0903115014      -16.1012016748
 O         2.8185646091        6.1419590710      -15.4776701697
 C         4.1938264790        7.9872234596      -15.3674211366
 C         5.4588532121        7.2923667081      -14.9353586140
 C         6.6542309826        7.5928375644      -15.9961328241
 O         6.5897285973        8.5281580835      -16.7769847211
 C         7.6868421913        6.5309154472      -15.8479982322
 C         7.0531137533        5.1829059108      -16.3677678576
 O         6.3168333304        5.1290193760      -17.3137372437
 C         7.6663761147        3.8450563984      -15.7186510516
 C         6.7975617900        2.6299249635      -16.1837955666
 C         7.1382941266        1.2874980953      -15.5052249270
 O         7.3084432316        1.1386291426      -14.2792946672
 C         6.9065076550       -0.0203520446      -16.4370289023
 C         5.4101945769        0.1641462360      -16.8762149643
 O         5.1459995155        0.4616749600      -18.0471522147
 C         4.3943677403        0.3175510264      -15.6789990556
 C         2.9810835679        0.7319977385      -16.2219784000
 C         2.2882797982        1.9160645469      -15.5285426524
 O         2.2146509327        2.9348550457      -16.2581816754
 C         1.7372962656        1.9769604277      -14.0303299065
 C         0.1424533687        1.9843013392      -14.1245815200
 O        -0.4003871746        2.7009098409      -14.9406160739
 C        -0.6636766636        0.9333137201      -13.2422976303
 C        -2.2204849152        0.9165363281      -13.4528056312
 C        -2.9243058615        0.5073845945      -12.0974077672
 O        -2.8496016342        1.0855358905      -11.0538665275
 C        -3.8042306512       -0.8330015458      -12.2003688647
 C        -4.1779142527       -1.0533903183      -10.6970046694
 O        -3.3179621631       -1.3352562463       -9.8692285138
 C        -5.5306392282       -0.6910654298      -10.1436452600
 C        -5.3517802795       -0.5580811622       -8.6631268340
 C        -5.7032936828       -1.8720065207       -7.8843756562
 O        -6.1409046732       -2.8014095997       -8.5909702511
 C        -5.7345240093       -1.8504907341       -6.3025630938
 C        -4.6608087417       -3.0409241866       -5.8958366282
 O        -4.7152094242       -4.1631194317       -6.3799998605
 C        -3.7664974509       -2.7966451913       -4.6571736955
 C        -3.3259383429       -4.0231774893       -3.9515679130
 C        -4.5499429973       -4.5827442106       -3.2306899582
 O        -5.6305866120       -4.0301213965       -2.9579613749
 C        -4.5040649587       -6.0725932044       -2.8805921707
 C        -4.5447516254       -6.9984929624       -4.1425477120
 O        -3.8663174383       -6.7338514610       -5.1606511993
 C        -5.3406512178       -8.3076065383       -4.1190394280
 C        -5.1952800574       -9.1103622267       -5.4222077711
 C        -5.7229380139       -8.2845159278       -6.6091815130
 O        -6.2469964031       -7.1937470896       -6.5716742277
 C        -5.5910024007       -9.0115561855       -8.0744951698
 C        -6.3100329213       -8.0217194368       -9.0843797216
 O        -5.8279254034       -6.8938607478       -9.2072786637
 C        -7.5427586223       -8.4607663954       -9.8784892199
 C        -8.1295541791       -7.2924779747      -10.6247955735
 C        -8.7361000430       -6.1940988700       -9.7515912348
 O        -8.0443834647       -5.1549974095       -9.5421503497
 C       -10.1325334079       -6.2978628961       -9.1999284796
 C        -9.8916590549       -6.3471510354       -7.5875542731
 O        -9.1333525802       -5.5794470684       -6.9742690818
 C       -10.9760761650       -7.1296497783       -6.8215599527
 C       -10.7158279597       -7.4641405957       -5.3571966335
 C       -11.7326177037       -8.5989982753       -4.9972821448
 O       -12.7458798323       -8.7297406189       -5.6520265298
 C       -11.4047378998       -9.5228317886       -3.7321229862
 C       -10.9021926564       -8.7324420840       -2.5550529363
 O        -9.7091675302       -8.8037507738       -2.2803599971
 C       -11.8471592428       -7.6073050084       -2.0697350261
 C       -11.8743763519       -7.3230357247       -0.5183388420
 C       -12.9193041419       -8.1893668506        0.3002410280
 O       -13.8474121706       -8.7114175134       -0.2791410979
 C       -12.7406902745       -8.5788560887        1.7734580166
 C       -12.0311553826       -9.9771674951        1.6197591104
 O       -10.9388417512      -10.1550820497        2.1009455826
 C       -12.6043062748      -11.0218922993        0.6189686685
 C       -11.8124830813       -7.6657768574        2.5154994131
 C       -14.2663805462       -8.8754964123        2.2674870655
 C       -12.8088154960      -10.2045294799       -3.2985739711
 C       -10.3474995280      -10.5477959592       -4.2086074214
 C       -10.8719487075       -4.8829376961       -9.2423518425
 C       -10.9837920127       -7.3431575267       -9.8852392621
 C        -4.1121588742       -8.9818001669       -8.3037215236
 C        -6.2302367604      -10.3952709714       -8.0767383307
 C        -3.1720698519       -6.4040543180       -1.9977806207
 C        -5.6901922974       -6.5039292684       -1.9164214084
 C        -5.3290730444       -0.4524984304       -5.7655210758
 C        -7.0312212464       -2.3983541114       -5.7173302483
 C        -4.9300719005       -0.5411677335      -13.2783281929
 C        -2.8033870089       -2.0185191115      -12.5460848140
 C         2.2651231761        0.8108371344      -13.2185434329
 C         2.1935333557        3.3541122899      -13.5598227752
 C         7.7629382334        0.1293215450      -17.7660550210
 C         7.2203429322       -1.3510526629      -15.6507209326
 C         8.8847463983        6.8864080259      -16.8365096593
 C         8.2207550788        6.5529130748      -14.4136956415
 C         3.2290383635        5.7833144237      -18.2594158901
 C         3.4727275237        8.4062369207      -18.4126576895
 C        -2.3891981995        6.0576037842      -16.8298168069
 C        -3.6203964908        7.8870297011      -15.5908763807
 H        -0.3044431481        7.9892177111      -13.3908147559
 H        -1.5477385420        7.0816118548      -12.5150302394
 H        -2.0685326038        8.6398041143      -13.3242159016
 H        -1.4185505885        9.4571853330      -18.3055914314
 H        -1.4084584798        7.7563619951      -18.2116026888
 H         1.0025721039        9.5477387561      -17.7749690167
 H         0.6229333127        8.7877824082      -19.2092864196
 H         3.6963717769        8.4032400754      -14.5186084318
 H         4.4479657926        8.7510900980      -16.1041586198
 H         5.3285381700        6.1875127039      -15.0548357625
 H         5.5917416507        7.4003256990      -13.8713682426
 H         7.7296845353        3.8963639458      -14.6331583574
 H         8.6983796051        3.7924738780      -16.0086160074
 H         6.8093393024        2.4963922533      -17.2740408672
 H         5.7462965299        2.9170992544      -15.9193391140
 H         4.8388900988        1.0903866483      -14.9876083365
 H         4.3786505159       -0.5941524844      -15.0784804108
 H         2.5090954459       -0.2274059744      -16.1559427270
 H         3.0330300000        1.1720156698      -17.3325308686
 H        -0.3890900057        1.2077837657      -12.1754858279
 H        -0.2090002198        0.0220597466      -13.3635263454
 H        -2.3844842038        0.1025179961      -14.0093861432
 H        -2.3637762881        1.9809594085      -13.6336596432
 H        -6.3831526135       -1.3668419465      -10.4474081020
 H        -5.7735392559        0.2327686095      -10.6138179820
 H        -6.0196756762        0.2997692099       -8.1531730970
 H        -4.3220271969       -0.2780758836       -8.4392040338
 H        -4.1942586578       -2.1929158376       -3.8198833177
 H        -2.8343595541       -2.1685222913       -4.9864213151
 H        -2.5308284801       -3.8187254825       -3.2035079196
 H        -2.9401522087       -4.7567608399       -4.5590623841
 H        -6.4433607227       -8.0901582836       -4.1380960706
 H        -5.2028877420       -8.9791367557       -3.2611004987
 H        -5.7759757150      -10.1671418522       -5.4881992038
 H        -4.1672242067       -9.4783792449       -5.5189965123
 H        -8.2638099784       -8.7205641757       -9.1015339219
 H        -7.2188991723       -9.2883973344      -10.5446420620
 H        -8.7560934597       -7.6545280235      -11.4712549560
 H        -7.2811181310       -6.6806507653      -11.0700294109
 H       -11.1780321969       -8.1079193447       -7.3043739949
 H       -11.9300036157       -6.6597363166       -6.9624061672
 H       -10.8779613833       -6.6918783165       -4.6157149238
 H        -9.7095434611       -7.8985185863       -5.2262492008
 H       -12.8416378861       -7.8763120080       -2.3243400357
 H       -11.5080411789       -6.7305494780       -2.6220868316
 H       -12.1694419018       -6.2299549258       -0.3672350242
 H       -10.8448733821       -7.5165851120       -0.1771477642
 H       -12.1670276937      -12.0437866485        0.7395636198
 H       -12.2500469732      -10.6113051400       -0.3159103881
 H       -13.7432367526      -11.1662348937        0.5193626368
 H       -12.0310283547       -7.3235809218        3.5873284275
 H       -11.6543264433       -6.7582257824        1.9266817839
 H       -10.7477053668       -8.1697683419        2.7238747302
 H       -14.3015171515       -9.2684244578        3.2498888935
 H       -14.8219745587       -9.6795781035        1.7807758711
 H       -14.8264479788       -7.9994982121        2.1102802626
 H       -12.7000172487      -10.4943575451       -2.2399902703
 H       -12.8409762239      -11.2030077204       -3.8789978407
 H       -13.6328890347       -9.5666813182       -3.5840163729
 H        -9.4930175549      -10.0724415157       -4.7786595604
 H       -10.6985434697      -11.4282165521       -4.7494866650
 H        -9.7741424493      -11.0798642535       -3.4625468753
 H       -10.5624840092       -4.2605048912      -10.0900250196
 H       -10.7006262648       -4.2128627502       -8.4017610500
 H       -11.9702497007       -4.8888242050       -9.3379505984
 H       -11.0957392666       -7.3163628620      -10.9636302384
 H       -11.9508378078       -7.3091497049       -9.4678034658
 H       -10.6717504284       -8.3164110958       -9.8046434753
 H        -3.6111685017       -9.8993410492       -8.0222770287
 H        -3.6600964947       -8.1760992674       -7.7058629721
 H        -3.8597095229       -8.8321051658       -9.3203308899
 H        -5.9622211143      -10.9744487637       -7.2504747385
 H        -5.7679405286      -10.8986208972       -9.0290383625
 H        -7.3258896949      -10.3646692497       -8.1143519337
 H        -3.2208623217       -5.9298820818       -1.0179729329
 H        -2.2362618139       -6.1101831904       -2.5657244617
 H        -3.0536591364       -7.4575488856       -1.8111434498
 H        -5.6853047502       -5.7598470483       -1.1468629638
 H        -5.4356209189       -7.4382970882       -1.3524622749
 H        -6.7082747183       -6.6125321735       -2.2922581289
 H        -5.4563014120       -0.5315213585       -4.6763060912
 H        -6.0163310757        0.3888557743       -6.0528977089
 H        -4.3446223681       -0.0558859085       -6.1052116295
 H        -7.5112190489       -2.8626083428       -6.5722476105
 H        -7.8241474856       -1.7071010916       -5.3912083415
 H        -6.7579469998       -3.0766306394       -4.8743707564
 H        -4.8398729620       -1.4094355624      -14.0176013965
 H        -4.7892722313        0.3351022964      -13.8910788488
 H        -5.8928322418       -0.6897934262      -12.7791877496
 H        -3.2969303676       -2.8913137523      -12.1380916406
 H        -1.7942237168       -1.8837388226      -12.1671658479
 H        -2.6703777309       -2.1103122467      -13.6050974516
 H         2.0122553701       -0.1804841939      -13.6707983230
 H         1.7740796853        0.7833029963      -12.1539246220
 H         3.2969406414        0.7856679082      -13.1648826229
 H         2.0874833526        3.3930101603      -12.5144048546
 H         1.4681450911        4.0840884301      -13.9020388620
 H         3.2069839184        3.6698114062      -13.8725150982
 H         7.9860384385        1.1893244772      -18.1323207880
 H         7.3195665693       -0.3393058088      -18.5965212000
 H         8.7062127873       -0.3009507720      -17.6188485050
 H         8.1345980214       -1.1791658621      -15.0288063412
 H         7.4212201210       -2.2131719196      -16.2605676114
 H         6.4698397616       -1.7179071032      -14.9213705950
 H         9.5193725388        6.0600680028      -16.8814822333
 H         9.3492773195        7.8068221695      -16.5869775739
 H         8.5565263788        6.8528171323      -17.9087511394
 H         7.4936041968        6.2635724803      -13.6963920703
 H         8.5818441494        7.6200733531      -14.1536112766
 H         9.1573640033        5.9437340228      -14.1855217981
 H         3.1781445415        5.7991371353      -19.3586049337
 H         2.4621444353        5.1086960190      -17.8319734645
 H         4.1544269804        5.4576638696      -17.8306713323
 H         3.5883392173        9.2630970523      -17.7605576242
 H         2.7326525333        8.6315171968      -19.1727923843
 H         4.4071391651        8.1201989698      -18.7046221212
 H        -1.4699437982        5.8887078084      -17.3040240745
 H        -3.2214036069        6.2747419282      -17.5329379312
 H        -2.6812058239        5.2920207876      -16.1606396642
 H        -3.3784980849        8.8203158006      -15.0347118844
 H        -4.2708425634        7.1662196558      -15.0656992046
 H        -3.9779075163        8.2012603252      -16.6070897931
 Na        0.9505770540        4.7509770433      -15.5495524310
 Na       -6.5453877732       -5.0672122442       -7.6320248633
