232

 C        -1.2556286900        7.6612687986      -13.3307181380
 C        -1.5881244935        6.7461650476      -14.5839076171
 O        -1.0776060711        5.6260450193      -14.4485475745
 C        -2.3285033800        7.3531032359      -15.7996197139
 C        -1.4860298786        8.5709776745      -16.5389239619
 O        -1.2455191019        9.6220616220      -15.9850440361
 C        -0.9281986271        8.5137377011      -18.0108552709
 C         0.6517551036        8.6081567079      -18.1537734542
 C         1.2440107828        7.3191409853      -17.5335415986
 O         0.4730869752        6.4674148477      -17.0137990104
 C         2.7529421418        7.0750013939      -17.5162256649
 C         3.1434706977        7.0733984134      -15.9506638969
 O         2.7730269335        6.2173516738      -15.1939926722
 C         4.1156733694        8.1841341014      -15.3153296019
 C         5.3489299282        7.3806850277      -14.8065587524
 C         6.5244969219        7.6390740419      -15.8024491300
 O         6.5817551846        8.5727441675      -16.5423297474
 C         7.7203533016        6.5219624619      -15.9070167281
 C         7.1775426542        5.1104461669      -16.3735564156
 O         6.3144943436        5.1360532640      -17.2473875531
 C         7.4800469228        3.7984204751      -15.6671376394
 C         6.7538550100        2.6458427016      -16.1794237958
 C         7.2529929062        1.2380954650      -15.6475183110
 O         7.7551574081        1.1017925034      -14.5514356678
 C         6.9368823757       -0.0057235043      -16.6962517565
 C         5.4091867309        0.2378884608      -16.9960212459
 O         4.9553997330        0.5208680499      -18.0782527239
 C         4.4018202672        0.1954396782      -15.6865969437
 C         2.9187937528        0.3878441135      -16.0499186975
 C         2.3885013012        1.7398874488      -15.6328048170
 O         2.2456065956        2.6620118126      -16.3859136144
 C         1.8300961716        1.8840496777      -14.1485601035
 C         0.1756342367        1.8817338831      -14.2239361698
 O        -0.4047757241        2.7468418608      -14.8640301109
 C        -0.5320244116        0.9299371127      -13.2717011723
 C        -2.0244177243        1.0230949050      -13.5645240457
 C        -2.8258011723        0.5438673108      -12.2607347041
 O        -2.8704276264        1.2653317601      -11.2798405858
 C        -3.5804543855       -0.7792752038      -12.2521770196
 C        -4.0777384276       -1.1711950359      -10.7281608089
 O        -3.2666520802       -1.7498646820      -10.0279608290
 C        -5.4713230758       -0.7219865697      -10.2320930038
 C        -5.6894212004       -0.5795329884       -8.6571880095
 C        -5.7999151545       -1.8423937230       -7.8520348969
 O        -6.0359842120       -2.8960451069       -8.3815688710
 C        -5.7365896132       -1.7634680002       -6.2220411010
 C        -4.6959480631       -2.9559706073       -5.7546882397
 O        -4.7094949741       -4.0264440176       -6.3250341303
 C        -3.6261012778       -2.7622203141       -4.7390147620
 C        -3.3639021143       -4.0460909823       -3.8922941205
 C        -4.6844711444       -4.6327967425       -3.2817293383
 O        -5.6747024895       -3.9662473301       -3.0677308910
 C        -4.5503327902       -6.1291902236       -2.7185661652
 C        -4.5655708580       -7.1190703502       -3.9001553339
 O        -3.8646658444       -6.8497990910       -4.8558741465
 C        -5.5208840650       -8.3199006774       -3.9203709642
 C        -5.5873959306       -9.1085707794       -5.3160111664
 C        -5.8613665405       -8.1819379371       -6.5384980961
 O        -6.3587097841       -7.0610064856       -6.4078322775
 C        -5.7178362815       -8.8499264805       -8.0491061157
 C        -6.2407240069       -7.8766597709       -9.1167201079
 O        -5.8005880558       -6.7584188688       -9.2484351857
 C        -7.4891604989       -8.3577746140       -9.9924567766
 C        -8.1542285491       -7.1620466336      -10.7588641957
 C        -8.6262276963       -6.1107528095       -9.8373564174
 O        -7.9387751446       -5.1676013445       -9.6501096599
 C       -10.0504864250       -6.2933936158       -9.1915954903
 C        -9.9365319745       -6.3660586430       -7.6257113336
 O        -9.0446988039       -5.7998345887       -7.0520870966
 C       -11.0595440982       -7.0368781059       -6.8789604941
 C       -10.6090263003       -7.7529865762       -5.5635405176
 C       -11.7476089998       -8.7575450464       -5.0142143998
 O       -12.7708808557       -8.7528900085       -5.6443870170
 C       -11.5553506468       -9.7015310617       -3.7056511847
 C       -10.9815794407       -8.6101569459       -2.5199168342
 O        -9.8343010073       -8.6940185799       -2.2127733891
 C       -12.0082996465       -7.5984670351       -2.0278021591
 C       -11.7545076165       -7.2689290510       -0.5976968446
 C       -12.9310509892       -7.9064912778        0.2841732390
 O       -13.9531113565       -8.2544777834       -0.2712483506
 C       -12.6198063113       -8.5094664362        1.7663731932
 C       -11.8598184098       -9.9429278464        1.5094063450
 O       -10.9848180237      -10.2779286423        2.2418183281
 C       -12.3828868323      -10.7512362788        0.3150246133
 C       -11.7153594288       -7.5897270531        2.6127142094
 C       -13.8404087611       -8.6187902473        2.7229000834
 C       -12.8700568135      -10.4564947795       -3.4971726554
 C       -10.3847912319      -10.6883938415       -4.0366195222
 C       -10.8454037143       -5.0726978150       -9.6193947664
 C       -10.8515813905       -7.5332829948       -9.6727575876
 C        -4.1684749447       -9.1017238087       -8.3846510810
 C        -6.3873278087      -10.3479479673       -8.1328514772
 C        -3.1119158838       -6.4055233848       -2.0919548521
 C        -5.6912343845       -6.3701460237       -1.6290397983
 C        -5.3882628839       -0.3607837353       -5.6655142841
 C        -7.1356375961       -2.2212973233       -5.6420784750
 C        -4.8608711164       -0.6649134994      -13.2760878600
 C        -2.7287477194       -1.9685223027      -12.7956263529
 C         2.4260022593        0.8238839993      -13.1605493068
 C         2.0786137411        3.2676804140      -13.5362410057
 C         7.8612813154        0.0132723977      -17.8837508852
 C         7.1579561993       -1.2580655930      -15.9319084413
 C         8.8194378500        7.1463953634      -16.8933914294
 C         8.3544748609        6.3703336365      -14.4944812847
 C         3.0494445087        5.7499993456      -18.1619132261
 C         3.6575820453        8.2353909740      -18.2608011070
 C        -2.6827105895        6.2483226218      -16.8725646386
 C        -3.6396719732        8.0079946316      -15.1475174799
 H        -0.2195321767        7.9661307394      -13.2698755115
 H        -1.5552566201        7.1418324117      -12.4123595824
 H        -1.8901178010        8.5012846946      -13.4424851619
 H        -1.3588089426        9.4506234043      -18.4820910827
 H        -1.3688337429        7.6190314712      -18.5859590797
 H         0.9086225265        9.5260668439      -17.6172968285
 H         0.9404403016        8.9225947041      -19.1623615001
 H         3.4821338101        8.5420523528      -14.4426935181
 H         4.4949323340        9.0459482649      -15.9127505965
 H         5.2241550637        6.3199842210      -14.6642071596
 H         5.6985015050        7.7317601227      -13.8047435316
 H         7.3096919069        3.9228944245      -14.6006803016
 H         8.5825868244        3.6321193548      -15.6606133280
 H         6.6591126535        2.6558054104      -17.2613784631
 H         5.7806472498        2.8328122736      -15.8695225510
 H         4.7469671439        0.8972881135      -14.9369469301
 H         4.6091618917       -0.7700784273      -15.1658758349
 H         2.3612754016       -0.4530405432      -15.5687571968
 H         2.8347804149        0.3948098415      -17.0553706208
 H        -0.3297979408        1.2457775454      -12.2644033779
 H         0.0322559509       -0.0786279332      -13.3928536058
 H        -2.2439752528        0.3571357625      -14.4434675025
 H        -2.0701521572        2.0943731902      -13.4679470685
 H        -6.2188082617       -1.4076910007      -10.5481353070
 H        -5.7270938082        0.2592208198      -10.7171552296
 H        -6.5968069870       -0.1547564131       -8.5046613481
 H        -4.9631705080        0.1188741234       -8.1435679303
 H        -3.8878813805       -1.9739420777       -4.0411867707
 H        -2.7253442107       -2.4726573364       -5.1521925796
 H        -2.6172201284       -3.8824959343       -3.1252767892
 H        -2.8976169417       -4.8883151242       -4.5383431980
 H        -6.5039442662       -7.8323676961       -3.7303296328
 H        -5.4449768990       -9.1454624688       -3.1722393420
 H        -6.3487824785       -9.7369970409       -5.3942074823
 H        -4.7006086422       -9.7794895146       -5.3108871245
 H        -8.2697421752       -8.7483813090       -9.2762774906
 H        -7.1175798471       -9.1209050050      -10.7112539063
 H        -9.0093849386       -7.5434462865      -11.3353810036
 H        -7.4644333376       -6.7357973171      -11.4737039526
 H       -11.5513298224       -7.8097894842       -7.4554966958
 H       -11.8910799282       -6.2758279037       -6.7813239457
 H       -10.2404081002       -7.1330209544       -4.7364204891
 H        -9.8224959988       -8.4408099874       -5.8379245259
 H       -13.0869718686       -7.9302166327       -2.0733235880
 H       -11.7312732736       -6.7113337379       -2.6447759451
 H       -11.7211670081       -6.2330410020       -0.4789168466
 H       -10.8262521726       -7.7404354351       -0.2988725210
 H       -12.5988439511      -11.7328609385        0.7269355687
 H       -11.6938926788      -10.8499745516       -0.5756165570
 H       -13.3486297901      -10.3593125360        0.0444799212
 H       -11.7797673543       -7.8315831809        3.6248563803
 H       -12.1334901399       -6.5573328460        2.5829464167
 H       -10.7165026615       -7.5934565350        2.4683604120
 H       -13.7135817524       -9.3763100213        3.4840217892
 H       -14.7726723061       -8.9287980872        2.2568366186
 H       -14.0400553641       -7.5685501287        3.0463341547
 H       -12.9378760954      -10.6175146609       -2.4206755600
 H       -12.9151252506      -11.3582036843       -3.9879058021
 H       -13.6016142558       -9.7517873506       -3.8971789438
 H        -9.4249965410      -10.2754665435       -4.1226626062
 H       -10.4702498020      -11.2579848577       -4.9503752680
 H       -10.3458759789      -11.5761257452       -3.4032442143
 H       -10.9693605619       -4.7694765818      -10.6555507661
 H       -10.4847621729       -4.1489749411       -9.0961119569
 H       -11.8473787514       -5.0980636851       -9.1583092194
 H       -10.9779160363       -7.7772064825      -10.7028904165
 H       -11.8943757967       -7.6001463464       -9.3850502742
 H       -10.3363471624       -8.4940995411       -9.2761273983
 H        -3.6408848096       -9.7216133616       -7.6187535653
 H        -3.6088174015       -8.2170103919       -8.6033435763
 H        -4.0590326916       -9.8770588960       -9.2090018751
 H        -5.7041079686      -11.1048914991       -7.6102497968
 H        -6.5751159076      -10.5537232413       -9.1156062822
 H        -7.3102259786      -10.4183496435       -7.5551146022
 H        -2.8235909516       -5.6347799413       -1.3716049993
 H        -2.3024542585       -6.5494095485       -2.7694372932
 H        -3.3207339466       -7.2936339973       -1.4774446088
 H        -5.6054534940       -5.9112837511       -0.6242651597
 H        -5.7621082056       -7.4274048663       -1.4803848267
 H        -6.6744478036       -6.1333248665       -2.0999467506
 H        -5.2381857463       -0.3345401027       -4.5904675423
 H        -6.0931780056        0.4269445740       -5.8453802013
 H        -4.4883956341       -0.0496144047       -6.1687084541
 H        -7.5652997086       -3.1635603306       -5.9630367054
 H        -7.8915086070       -1.5240661697       -5.9248696057
 H        -6.9421881096       -2.1650515994       -4.5882154964
 H        -5.1166542245       -1.5220107946      -13.8664844620
 H        -4.5455863123        0.0980911417      -14.0291614519
 H        -5.7153123111       -0.3642337670      -12.6780623950
 H        -3.1794835366       -2.8789247970      -12.4103978261
 H        -1.6625130083       -1.8646548300      -12.5580041288
 H        -2.6953435671       -1.9111371594      -13.8970279852
 H         2.2644315203       -0.1745470379      -13.5531690028
 H         1.9343826362        0.8802232431      -12.2679384643
 H         3.5476511785        0.8067624088      -12.8927499182
 H         1.5550647012        3.2850325621      -12.5671201258
 H         1.6087512155        4.0219521606      -14.1278135364
 H         3.1155044430        3.5090764820      -13.4949672964
 H         8.2799755583        0.9264364069      -18.1380449517
 H         7.3679805289       -0.3759257946      -18.8116965718
 H         8.8296931757       -0.5784208787      -17.7175644518
 H         8.2326548322       -1.3846081876      -15.6899965150
 H         6.8973428206       -2.1585440067      -16.4734227673
 H         6.5835701574       -1.3046166163      -15.0173216803
 H         9.6588235821        6.5162575937      -17.2690519334
 H         9.1443154776        8.0577352982      -16.3343222308
 H         8.3485113028        7.4125309717      -17.7967550815
 H         7.6286724131        5.8305418932      -13.8419582019
 H         8.5351323859        7.2494890446      -13.9591907381
 H         9.2257715511        5.8689893984      -14.5250423561
 H         2.7186227493        5.9203998848      -19.1320299538
 H         2.5527914342        4.8537593344      -17.7499272072
 H         4.1313791514        5.6102910521      -18.1222959632
 H         3.2508268706        9.2401736329      -18.0699388051
 H         3.6898873429        7.9119359170      -19.2720572904
 H         4.6603494497        8.1210788370      -17.7683806448
 H        -1.6383318797        5.8922853117      -17.1288629181
 H        -3.0852414381        6.7962066245      -17.7074254376
 H        -3.5374413601        5.6026326407      -16.5080882078
 H        -3.3026680387        8.7681932114      -14.4893624810
 H        -4.1230163934        7.2006014396      -14.5808878346
 H        -4.2427279606        8.3647859637      -15.9678662812
 Na        1.0203636251        4.6247225998      -15.7071803194
 Na       -6.5339720803       -5.0399513191       -7.6153352676
