232

 C        -0.8995109399        7.7890230937      -13.6094265424
 C        -1.3525018599        6.9058838373      -14.8009529780
 O        -0.9220291943        5.7938266271      -15.1085665735
 C        -2.4123281358        7.5158428630      -15.7772552383
 C        -1.4726527528        8.5688570317      -16.5757073056
 O        -1.2117706319        9.4987722777      -15.8956654653
 C        -0.9237373820        8.3464335760      -17.9949039918
 C         0.6438695377        8.3970971248      -18.0084062226
 C         1.2371151680        7.0762515744      -17.4618996425
 O         0.4360920049        6.1592138565      -17.4256169096
 C         2.7467007468        6.9858480039      -17.1932343009
 C         3.0655223832        6.9147096555      -15.6776583948
 O         2.6121823271        6.1089417410      -14.9401244610
 C         4.0181100508        7.9961695881      -14.9284670412
 C         5.3717632442        7.3061839624      -14.6424979996
 C         6.4563175952        7.7108067154      -15.6916386624
 O         6.3943290128        8.6133725605      -16.4845661983
 C         7.7114953924        6.6263478068      -15.7012002996
 C         7.0511907217        5.2388196139      -16.1209246488
 O         6.1488656558        5.3082115423      -16.9508438911
 C         7.5182173069        3.9129372348      -15.6876527089
 C         7.0288592996        2.8084212669      -16.5673296862
 C         7.4212061157        1.4011699630      -16.1666361680
 O         8.3192761802        1.2802430603      -15.3165898894
 C         6.7087661969        0.0779657723      -16.8290524569
 C         5.1449351714        0.1570476139      -16.9765309885
 O         4.6239754542        0.5119539206      -18.0396370516
 C         4.2238406209       -0.1830213874      -15.7925372109
 C         2.8147093788        0.1940930522      -16.1213254490
 C         2.3344694269        1.5790351229      -15.4868827486
 O         2.2971620585        2.5603120395      -16.1710957199
 C         1.9835389129        1.6683006061      -13.9630039846
 C         0.3408689812        1.7493542210      -14.0101127998
 O        -0.1830987562        2.5284554321      -14.8456194948
 C        -0.4907444190        0.7975184968      -13.2238916261
 C        -1.9940226846        0.9220287516      -13.4568897080
 C        -2.8689277082        0.5269164203      -12.3088684289
 O        -3.0825864526        1.2992183697      -11.4277846322
 C        -3.5785574436       -0.9045356554      -12.2510807031
 C        -4.0136465021       -1.3295555628      -10.8320961016
 O        -3.2343461802       -1.9765778367      -10.1111761203
 C        -5.2648790292       -0.7045109986      -10.1961829211
 C        -5.0224083082       -0.6830188874       -8.6559628237
 C        -5.6999344981       -1.8649257536       -7.9887455063
 O        -6.2554158418       -2.8014838513       -8.5775537191
 C        -5.7852163515       -1.8615007734       -6.4372442261
 C        -4.9418541214       -3.1004279921       -5.7447476721
 O        -5.1700156302       -4.2042822475       -6.1993820579
 C        -3.8745418454       -2.8929156894       -4.6953550580
 C        -3.4213966039       -4.1204789946       -4.0041425062
 C        -4.6455855580       -4.7261456041       -3.2640025232
 O        -5.7714150449       -4.2207243306       -3.3997167423
 C        -4.4479814216       -6.0918080209       -2.6263538849
 C        -4.6446181897       -7.1238809191       -3.8163590525
 O        -3.6862114148       -7.4740061382       -4.5510215685
 C        -5.9625015870       -7.8736954440       -3.7824140283
 C        -6.0535388186       -8.7631126475       -5.0781617450
 C        -6.1410039218       -8.0101399031       -6.3967371649
 O        -6.3011925962       -6.8076017818       -6.3937465050
 C        -5.7936370021       -8.8012562443       -7.7431790869
 C        -6.2352675799       -7.7833131364       -8.8890978664
 O        -5.7034709239       -6.7150638470       -9.0915092071
 C        -7.2509127592       -8.1922774526      -10.0039427044
 C        -7.8930854940       -6.9747740141      -10.8009435847
 C        -8.6843759583       -6.0689565936       -9.9207996201
 O        -8.2827356265       -4.9282366937       -9.7239367528
 C        -9.9613384563       -6.5321423592       -9.3057583987
 C        -9.7513437634       -6.5179997081       -7.7149767194
 O        -8.7007862792       -6.0764042825       -7.2468569538
 C       -10.9667013188       -6.9781514955       -6.7909469575
 C       -10.6533465775       -8.3273691254       -6.1411795465
 C       -11.7957432417       -8.7260823845       -5.2043955951
 O       -12.9162032548       -8.6607496083       -5.6652776337
 C       -11.5278644496       -9.5635067814       -3.8704615307
 C       -11.1408433546       -8.5774729765       -2.6512443597
 O       -10.0201348133       -8.6400892916       -2.2778478522
 C       -12.2203206504       -7.6303935280       -2.1064349056
 C       -11.9262737404       -7.0536486176       -0.7345291916
 C       -12.8035257800       -7.5922934564        0.4475283563
 O       -13.9404209095       -7.1589882959        0.3003894716
 C       -12.2973125276       -8.3079869034        1.8041713276
 C       -11.7572408203       -9.7667698051        1.5368337079
 O       -10.9731770617      -10.2105768679        2.3430089050
 C       -12.0979453556      -10.7414176139        0.3426378852
 C       -11.2805166253       -7.4153789586        2.4522837170
 C       -13.4992610085       -8.5152009152        2.8530671825
 C       -12.8664744129      -10.4058460116       -3.5949006944
 C       -10.3952020240      -10.5559859823       -4.1654390054
 C       -11.0364925274       -5.3797780580       -9.3847206391
 C       -10.6415602761       -7.8152629078       -9.7217099228
 C        -4.2932434604       -9.0521667189       -7.7220531546
 C        -6.5557177494      -10.1861277423       -7.9015104784
 C        -3.0902969486       -6.2665698645       -1.9640651799
 C        -5.6589026919       -6.2558038267       -1.5706733198
 C        -5.1958560712       -0.5232797837       -5.9058121867
 C        -7.1947265434       -1.9069093054       -5.9448962367
 C        -4.7263372396       -0.7019467755      -13.2555022398
 C        -2.6425804518       -1.9775168354      -12.7515077867
 C         2.2751784410        0.4782434512      -13.1228094987
 C         2.6695560197        2.9644715294      -13.5015230496
 C         7.3205243064        0.0221974210      -18.2931440277
 C         7.3078548098       -1.1648022911      -16.0122964857
 C         8.6453230060        7.0368441555      -16.8470489320
 C         8.4435864545        6.7034502014      -14.4006703605
 C         3.2868448801        5.6446903950      -17.8453569246
 C         3.5480371650        8.2177330376      -17.8096231044
 C        -3.1173720752        6.4775855303      -16.7182805872
 C        -3.5221115148        8.3382894483      -15.0238741494
 H        -0.0857868769        7.2468693718      -13.0556915621
 H        -1.7866838833        7.8230452149      -12.9037453125
 H        -0.5261393259        8.7526674991      -14.0001604045
 H        -1.3779907396        9.2434271137      -18.4785587337
 H        -1.3570938448        7.5147893141      -18.5624466196
 H         0.8699675818        9.3165566222      -17.4569984909
 H         0.9755372709        8.7146965831      -18.9936565832
 H         3.4655475506        8.2331152405      -13.9821283078
 H         4.1179618843        9.0330680169      -15.3661577718
 H         5.3149915539        6.2378809015      -14.6251993434
 H         5.8167112050        7.5776736658      -13.6680027424
 H         7.2835474548        3.8272058727      -14.6428926296
 H         8.6287291016        3.9082316589      -15.6793284472
 H         7.3922098344        3.0151616258      -17.5592196111
 H         6.0284808081        2.8910989216      -16.6823200343
 H         4.7209495529        0.3143949368      -14.9459351365
 H         4.3783134789       -1.2595065958      -15.4567202781
 H         2.0783532448       -0.5713662728      -15.7394493971
 H         2.8099360840        0.1818657159      -17.1813600613
 H        -0.3146472270        0.8730898981      -12.1620127232
 H        -0.1431874959       -0.2078234198      -13.6352497256
 H        -2.2192106553        0.3348695669      -14.3719316464
 H        -2.4068860078        2.0195425850      -13.5856768992
 H        -6.0640622000       -1.3696709995      -10.4181127738
 H        -5.4727735792        0.3217973237      -10.5400834223
 H        -5.3409687511        0.2304478231       -8.1696530296
 H        -3.8908507725       -0.8235826324       -8.5010457068
 H        -4.2593035512       -2.2511467204       -3.8740052151
 H        -3.0381695834       -2.4308840574       -5.1856578345
 H        -2.5463081863       -3.9281006591       -3.3965145718
 H        -3.1779688781       -4.8771492387       -4.8147264096
 H        -6.9302484461       -7.2714121681       -3.6467092131
 H        -5.8339208731       -8.4871766426       -2.7980865983
 H        -6.7560568468       -9.4740039361       -4.9812130390
 H        -5.0505402958       -9.2675862464       -5.2736382078
 H        -8.0043389863       -8.9122361112       -9.5930462996
 H        -6.7275300562       -8.8899165546      -10.7267350466
 H        -8.5585426659       -7.4459815247      -11.5979802008
 H        -7.0242377668       -6.4668700482      -11.2961872059
 H       -11.9527108781       -6.9711148255       -7.2774119015
 H       -10.9587807790       -6.2254707952       -5.9414970852
 H        -9.6892340252       -8.2220917711       -5.6332456633
 H       -10.5241092710       -9.1152679267       -6.8686814412
 H       -13.1386691139       -8.2052182720       -2.1079303649
 H       -12.2307015022       -6.7419550833       -2.7173689051
 H       -12.1811616795       -6.0184621715       -0.8241308288
 H       -10.8265243543       -7.1056337283       -0.5523322322
 H       -11.6897264890      -11.6830176697        0.7545156188
 H       -11.6481657488      -10.5766641174       -0.6576712040
 H       -13.2317575856      -10.6597678115        0.2103592830
 H       -10.2134147107       -7.7839558301        2.3384008425
 H       -11.3743739492       -7.3914587121        3.5254674423
 H       -11.2690970668       -6.4076116348        1.9417960239
 H       -13.1501915084       -8.5636361901        3.8332418160
 H       -14.0801061112       -9.4093042647        2.5715977454
 H       -14.1976678488       -7.6537316978        2.8144063761
 H       -12.6284720138      -11.0808567300       -2.6792146017
 H       -13.1567026703      -10.9467887546       -4.4966840409
 H       -13.6616495905       -9.7557989216       -3.2978731761
 H        -9.4939218574      -10.1441672005       -4.5600491527
 H       -10.5538548323      -11.1744524045       -5.0489295586
 H       -10.1548684120      -11.2714435545       -3.3489786813
 H       -11.5344528051       -5.3374401748      -10.3425380084
 H       -10.8412093597       -4.3371516305       -9.0859575383
 H       -11.8709531896       -5.5316418363       -8.6634439716
 H       -10.7410477163       -7.8356718694      -10.7908467939
 H       -11.5928053483       -7.9088259173       -9.3514665999
 H       -10.1381525251       -8.7388203243       -9.4232239257
 H        -4.0355151205       -9.9702104835       -7.1707540544
 H        -3.7233749670       -8.2361784331       -7.4120119287
 H        -3.8772356843       -9.3230821200       -8.7014300627
 H        -6.3179291473      -10.8758673434       -7.0254273877
 H        -6.3275300923      -10.6854420992       -8.8492677089
 H        -7.6254210848      -10.0141498633       -7.9278957577
 H        -3.0170113372       -5.4727794077       -1.2547073842
 H        -2.1894889686       -6.1106078759       -2.5780860853
 H        -3.0342200241       -7.2204968071       -1.4409000107
 H        -5.6162079814       -5.3501475608       -0.9760633724
 H        -5.6914273348       -7.0786688576       -0.8662344527
 H        -6.6619398645       -6.2129091692       -2.1031514140
 H        -4.9755079152       -0.5106563062       -4.8079803671
 H        -5.8667656804        0.3407313178       -6.0713560822
 H        -4.1729340900       -0.3202806822       -6.2328223492
 H        -7.7625777928       -2.7155861677       -6.4207778222
 H        -7.6998273386       -0.9516591693       -6.1319286741
 H        -7.1860049038       -2.1732208936       -4.8473191155
 H        -5.5153400451       -1.4543840190      -12.9795370415
 H        -4.4209966291       -0.8570871293      -14.3460965242
 H        -5.1334448026        0.3256400404      -13.2183023605
 H        -3.3514788413       -2.7767258439      -12.9686370974
 H        -1.9598154982       -2.3709977209      -12.0046527743
 H        -2.1684449387       -1.7822272532      -13.7189793177
 H         1.9264260902       -0.4008075194      -13.7192342379
 H         1.8549074716        0.4497026453      -12.1450690137
 H         3.3117723306        0.3019822317      -12.8232511374
 H         2.4006814212        3.2011165800      -12.4917380151
 H         2.4824498103        3.7536352231      -14.1661888527
 H         3.7320076004        2.7282752900      -13.5928689435
 H         6.7462633640        0.4658246737      -19.0478064233
 H         7.5335473427       -1.0190118307      -18.5625616509
 H         8.3100666310        0.5067460248      -18.4458610690
 H         8.4644045556       -1.1620010990      -16.0114203387
 H         7.1213944907       -2.1203135645      -16.3722207173
 H         6.8779671767       -1.1511703605      -14.9970218729
 H         9.5252902488        6.4110995845      -16.9231144986
 H         9.0981291261        8.0311991157      -16.6770427314
 H         8.0558066702        7.0300127738      -17.7564085058
 H         7.8052044240        6.5502683119      -13.5171069172
 H         8.9209891198        7.6429935154      -14.1884321957
 H         9.1478173556        5.9617737937      -14.4640963865
 H         3.1646846948        5.6508352628      -18.8597408179
 H         2.8558182967        4.6879800973      -17.4244448069
 H         4.3381521145        5.7264929879      -17.6075082622
 H         3.3370242646        9.0235015494      -17.1119481853
 H         3.2853948314        8.5059981233      -18.7857675843
 H         4.5378346377        7.8577995735      -17.8381420300
 H        -2.3844606954        6.1254464068      -17.4835804955
 H        -3.9623559090        7.0332222359      -17.0262963757
 H        -3.5165213121        5.6998830452      -16.0486005968
 H        -3.1067729789        9.1746778420      -14.5106188690
 H        -3.9856304316        7.6507204725      -14.2501589990
 H        -4.3499972071        8.4967469140      -15.7871378609
 Na        0.8003656569        4.3749785414      -15.9427437261
 Na       -6.6036728109       -4.9275824207       -7.8224505905
