232

 C        -0.2772294032        7.0530535167      -13.9189366632
 C        -1.3791028465        6.5366021561      -14.9512493386
 O        -1.4612998510        5.3691847659      -15.2870674615
 C        -2.3257154203        7.6875927490      -15.5826462256
 C        -1.3426174204        8.4746018473      -16.4729621629
 O        -0.7491042991        9.4077823197      -15.9675896520
 C        -1.1358821687        8.2127259334      -18.0610558867
 C         0.3378748984        8.4280808488      -18.3680120959
 C         1.1179564064        7.2214170195      -17.6667213470
 O         0.4671783168        6.2133047430      -17.3225816030
 C         2.7179571339        7.1015976905      -17.3285761040
 C         2.9159997641        6.7247680003      -15.8322512205
 O         2.6030893654        5.6324413034      -15.3867008875
 C         3.7380350103        7.6513854779      -14.9004877459
 C         5.1156213672        7.0261870270      -14.5469242515
 C         6.2807275115        7.4934430552      -15.3578212020
 O         6.2636272339        8.5514271963      -15.9568226011
 C         7.4509712802        6.4021440046      -15.5043383190
 C         6.9037947872        5.2151085989      -16.3718686254
 O         5.7194931044        5.0567861798      -16.5732532206
 C         7.9493328201        4.1718669485      -16.7162617397
 C         7.1839017265        2.8919771920      -17.2877680584
 C         7.6476998562        1.5316480581      -16.6938069145
 O         8.4896626909        1.4347810853      -15.8743043392
 C         6.8569566901        0.2310201463      -17.3724374270
 C         5.3843267938        0.5196990627      -17.0825492184
 O         4.8188436176        1.3409232672      -17.7633684333
 C         4.6823054636       -0.0494731020      -15.8505901376
 C         3.1190572379        0.1232709418      -16.0158254983
 C         2.5175809400        1.4559534556      -15.3512103616
 O         2.3177786633        2.3909334121      -16.0353303874
 C         2.1256254045        1.2125521457      -13.8878626016
 C         0.5885549014        1.6317632176      -13.7062599186
 O         0.2400870932        2.7964813219      -13.9715629664
 C        -0.3923212958        0.5443405854      -13.0957191104
 C        -1.8764540590        0.8360784926      -13.3721807623
 C        -2.8730986217        0.4030153493      -12.3325904993
 O        -3.4403648063        1.2103767888      -11.5978286309
 C        -3.4646464928       -1.0864956769      -12.4031472360
 C        -3.8162862728       -1.4851055692      -10.9423976024
 O        -3.0758746391       -2.2204534214      -10.3414038101
 C        -5.0763130052       -0.9419467304      -10.2542503523
 C        -4.9449865895       -0.9477478388       -8.7865649047
 C        -5.8581725864       -1.8358601420       -8.0838904529
 O        -6.5798457803       -2.6143395710       -8.7146324207
 C        -5.8367343152       -1.9687601429       -6.4606368283
 C        -4.9334384589       -3.2542673515       -6.1669717813
 O        -5.0096575268       -4.3340620823       -6.6890401448
 C        -4.0957745305       -2.9863655167       -4.8826970814
 C        -3.6579786240       -4.2577186427       -4.1339477660
 C        -4.7113511639       -4.8466571056       -3.1986691188
 O        -5.7257761300       -4.2968672873       -2.9608417925
 C        -4.5434082899       -6.1978084912       -2.3874475947
 C        -4.9595482122       -7.4423817578       -3.2398151536
 O        -4.1360749053       -8.1660815329       -3.7198475215
 C        -6.4941247058       -7.6145052462       -3.4711822285
 C        -6.6976399296       -8.4434237227       -4.6824313738
 C        -6.4051303090       -7.7533912310       -5.9729052358
 O        -6.6202301426       -6.5560030499       -6.0468543878
 C        -5.7886958311       -8.4788367916       -7.2273884783
 C        -6.2234899634       -7.7865471235       -8.5589674970
 O        -5.6345268133       -6.7613738527       -8.8980451758
 C        -7.4173910921       -8.3039690361       -9.4193676305
 C        -7.8149730703       -7.3532959367      -10.5342952989
 C        -8.6877045424       -6.2184980544      -10.0148192190
 O        -8.1687615300       -5.1100831522       -9.8147123110
 C       -10.1131141385       -6.5508079144       -9.5721880271
 C       -10.0615393975       -6.5154989167       -7.9063009319
 O        -9.1620248365       -6.0887570840       -7.2094114283
 C       -11.3382428496       -7.0930858713       -7.2839710286
 C       -10.8520039724       -8.1592513441       -6.2913912178
 C       -12.0496963891       -8.5116133041       -5.3835488942
 O       -13.1160269404       -7.9411590048       -5.3907181435
 C       -11.7591660227       -9.4906827648       -4.1910246515
 C       -11.1195462428       -8.6429298646       -2.9734634301
 O        -9.8836147357       -8.4131807946       -2.9753791239
 C       -11.9817222729       -8.3311952839       -1.7659663750
 C       -11.3363368033       -7.2149894862       -0.9013549852
 C       -12.3740428668       -7.1273230965        0.3113355510
 O       -13.4932312462       -6.8238308184        0.0771878871
 C       -11.9308579475       -7.6635392797        1.8194387810
 C       -11.4267691118       -9.2301047028        1.6611025987
 O       -10.4382227892       -9.5017569058        1.0140916859
 C       -12.2709616462      -10.3663735871        2.2224410222
 C       -10.7611885360       -6.9286427179        2.4692684564
 C       -13.1294133367       -7.6186996407        2.8348204916
 C       -13.0887091497      -10.1933822365       -3.6372102145
 C       -10.7226821546      -10.5718386210       -4.6840220226
 C       -11.0681350256       -5.3524332441       -9.8362695892
 C       -10.7050526180       -7.9010961965      -10.1290709241
 C        -4.2694710655       -8.3342638300       -7.0059826551
 C        -6.0255758307       -9.9208952966       -7.4459504153
 C        -3.0332426942       -6.2515306176       -1.9607040970
 C        -5.4396959976       -6.0959578409       -1.0366909536
 C        -5.3090874091       -0.6523526366       -5.7912559677
 C        -7.3020550787       -2.1021055996       -6.0443921622
 C        -4.6332100428       -0.9395923766      -13.4417063541
 C        -2.4319395662       -2.1183513894      -12.9635068042
 C         2.5503906573       -0.1814041508      -13.3422368366
 C         2.6989189296        2.3922692936      -13.0613323333
 C         7.1729087753        0.2988468925      -18.8795147712
 C         7.4076732753       -1.0651751144      -16.6588233141
 C         8.6875844706        7.0760464533      -16.1264578082
 C         7.8266673272        5.8576074831      -14.0898591072
 C         3.1073334983        5.7857025715      -18.1620862121
 C         3.4816869357        8.2673083724      -17.9039978910
 C        -3.4330626369        7.0446823071      -16.3890284885
 C        -2.9320731280        8.6558527382      -14.6547664883
 H         0.4860647698        6.3931949506      -13.5840993165
 H        -0.8908581766        7.3997900025      -13.1090213144
 H         0.1663258355        7.9106044501      -14.3713860695
 H        -1.7275631740        9.0252696589      -18.4537749617
 H        -1.4404830268        7.3520020853      -18.5147769165
 H         0.5719743365        9.4471297874      -18.0100886073
 H         0.5262986409        8.3648925902      -19.4466774989
 H         3.1184034744        7.9166219162      -14.0941170518
 H         3.9333982060        8.5554157369      -15.4753735385
 H         5.1125180541        5.9596661857      -14.6907541315
 H         5.5287668192        7.2795376317      -13.5346116582
 H         8.4820237458        3.9428367721      -15.7828178443
 H         8.6375815204        4.6012620156      -17.4862429571
 H         7.3292437534        3.0094032596      -18.3798395349
 H         6.1072712366        3.0696839028      -17.0969768589
 H         5.0726320916        0.5247259222      -15.0320509332
 H         4.7941467728       -1.1411326792      -15.7121313315
 H         2.4529283867       -0.6326902613      -15.6548951116
 H         2.9423776110        0.0935284714      -17.1789571446
 H        -0.1847928960        0.6477641260      -12.0433950726
 H        -0.1174254326       -0.4712597422      -13.3694754783
 H        -2.1709869129        0.6235589428      -14.3399195439
 H        -1.9883736672        1.9697114203      -13.6087781889
 H        -5.9287237127       -1.5390763316      -10.6781138963
 H        -5.2215997338        0.1351872827      -10.4177036381
 H        -4.9023531896        0.1389616962       -8.2720242957
 H        -3.8581737338       -1.3125166764       -8.5878162519
 H        -4.5708828059       -2.2973769754       -4.1099313396
 H        -3.1092422728       -2.4884050726       -5.1731935377
 H        -2.6622356393       -4.0432916835       -3.6945665272
 H        -3.5477644837       -5.0818379234       -4.8212682838
 H        -7.0177877756       -6.5777032708       -3.5955931301
 H        -6.8115361644       -8.0737224029       -2.4765492841
 H        -7.8515548334       -8.5592537979       -4.5608789041
 H        -6.1647563587       -9.3276431941       -4.6191293807
 H        -8.1648544135       -8.5373315933       -8.7145148301
 H        -7.1181307014       -9.2576422398       -9.8983279655
 H        -8.2794569491       -7.9660337514      -11.2855189776
 H        -6.8399517504       -7.0726788542      -10.8862873155
 H       -12.0538815685       -7.6141095898       -7.9105454089
 H       -11.8864302612       -6.3115959355       -6.7318097596
 H       -10.0523046843       -7.9074888954       -5.5567920430
 H       -10.5001985258       -9.0279143304       -6.8793978585
 H       -12.1922443822       -9.2245472841       -1.2143629161
 H       -12.9932273689       -8.0525151030       -2.0585669676
 H       -11.2242921882       -6.2934750838       -1.5132332673
 H       -10.3055765881       -7.4816998008       -0.5254095978
 H       -11.8119600328      -11.2921470772        1.8736801142
 H       -13.1975485171      -10.3252313037        1.7674128714
 H       -12.2487477515      -10.3603701073        3.3125254828
 H       -11.1469404303       -6.2958894830        3.3018213172
 H       -10.1476965714       -6.3562756853        1.7305373071
 H       -10.0354014790       -7.7026614083        2.8279166499
 H       -12.7274876077       -7.5004641364        3.8315190394
 H       -13.9662287065       -8.3723340792        2.7418802424
 H       -13.5887059300       -6.6516687331        2.6724180213
 H       -12.9009134011      -10.7924031451       -2.7719700502
 H       -13.4974318168      -10.9813910590       -4.3395402595
 H       -13.9314559283       -9.5111114875       -3.5308322610
 H        -9.8054800478      -10.1299083131       -5.0414777454
 H       -11.0655331493      -11.3653511389       -5.3588782844
 H       -10.2764318197      -11.1512107312       -3.8943704685
 H       -11.8642483703       -5.4010914183      -10.5318170846
 H       -10.5149272054       -4.5111932191      -10.1867307540
 H       -11.6501004232       -5.0320691406       -9.0007149389
 H       -10.7269909767       -7.8956523173      -11.2577861515
 H       -11.7467776587       -8.0391042283       -9.8004088885
 H       -10.0585144991       -8.6645812311       -9.8365307776
 H        -3.6879934860       -8.3624892278       -7.9492332275
 H        -3.7261451214       -9.1851461178       -6.5164545876
 H        -4.1260507846       -7.3850112041       -6.5192277696
 H        -5.6602133858      -10.5265924346       -6.6777428854
 H        -5.5303016027      -10.2984944332       -8.4209225312
 H        -7.0549038627      -10.1745290737       -7.4930532060
 H        -2.7565810160       -5.4010531419       -1.3529379738
 H        -2.3660726098       -6.4238388335       -2.8425939952
 H        -2.8245737010       -7.0672407980       -1.2724399699
 H        -5.2353573323       -5.1622564484       -0.6108877327
 H        -5.1708864919       -6.9468165590       -0.3940794450
 H        -6.5309153402       -6.0759391643       -1.1542667315
 H        -5.4919930886       -0.6389668620       -4.7393835171
 H        -5.8937804938        0.1601636777       -6.1541024832
 H        -4.3328496468       -0.4361081477       -6.0937656299
 H        -7.7636054469       -2.8561673328       -6.6700006815
 H        -7.8455875823       -1.1936856667       -6.1304296931
 H        -7.4561244934       -2.4124379871       -4.9866948144
 H        -4.6414948424       -1.7722020839      -14.1380219808
 H        -4.6655657340       -0.0811820596      -14.0143194649
 H        -5.5100997961       -1.0906611482      -12.8929830445
 H        -2.9451710646       -3.1107928912      -12.9714292038
 H        -1.5850611628       -2.2943255212      -12.2509308755
 H        -2.0950638890       -1.9138147972      -13.9869538731
 H         2.0858302337       -1.0353090259      -13.8739748630
 H         2.2023686172       -0.3589629922      -12.2478093206
 H         3.5746017317       -0.3313829762      -13.4552453024
 H         2.5888526818        2.1690985279      -12.0213887335
 H         2.1233650663        3.3218391806      -13.2707012842
 H         3.8211691547        2.5678016715      -13.2309594290
 H         6.3597161802        0.7999948539      -19.4978509737
 H         7.0840081644       -0.6744772129      -19.2775990234
 H         8.1193278536        0.6278108406      -19.1891101705
 H         8.4577642321       -0.9743702249      -16.5107131866
 H         7.1076263082       -1.9945292304      -17.1504370198
 H         7.0808616901       -1.0969683974      -15.6099569190
 H         9.4152985094        6.3252877825      -16.2804377955
 H         9.0247601800        7.9211521902      -15.5131515504
 H         8.4334268151        7.5473461245      -17.1403535405
 H         7.0570975381        5.1734865774      -13.7405157720
 H         8.0581478039        6.7672985946      -13.4792508150
 H         8.8396231267        5.2216412617      -14.1310806078
 H         3.3153466310        6.0344675581      -19.2712621059
 H         2.3845656046        5.0366898565      -18.0709061596
 H         4.0392818300        5.3616247689      -17.7731922561
 H         3.1999516003        9.3349175490      -17.6452445084
 H         3.3146544204        8.0720550884      -18.9894056773
 H         4.5000451124        8.2413267292      -17.6029344114
 H        -3.0449888252        6.5326679710      -17.2284867890
 H        -4.0710006778        7.9076351457      -16.6987708894
 H        -3.8359928333        6.3865156013      -15.6825757823
 H        -2.2513172621        9.4372763351      -14.3677395572
 H        -3.3439483831        8.1517224569      -13.7994217231
 H        -3.7323437668        9.2292064100      -15.1090357158
 Na        0.8830927216        4.3252469104      -15.7641784610
 Na       -6.9731165577       -4.9697626036       -7.8914785591
