232

 C        -0.2228685922        6.8868387520      -14.0726323856
 C        -1.3696929643        6.5195748081      -15.0555131275
 O        -1.5450886596        5.3629409229      -15.4063991183
 C        -2.3258478698        7.6875612911      -15.6550400418
 C        -1.2247216300        8.5493718456      -16.4640060215
 O        -0.4993171820        9.2765556746      -15.8141607248
 C        -1.0728610532        8.4195360770      -17.9096445600
 C         0.4443738648        8.1736222574      -18.2684032863
 C         1.0119438798        6.9239031181      -17.5547177542
 O         0.3609146514        6.0067132583      -17.1920429592
 C         2.6324251220        6.9237682717      -17.4693789939
 C         3.0497041626        6.7582833286      -15.9468320734
 O         2.5998048247        5.7731292526      -15.3958830471
 C         3.8462991147        7.8016275210      -15.1359481965
 C         5.0681814936        7.1856023169      -14.4290288442
 C         6.3597066123        7.4444762892      -15.2912393307
 O         6.3854768294        8.4192186178      -16.0092600938
 C         7.4644199952        6.3242272221      -15.3566198634
 C         6.9324928245        5.1864463998      -16.2638747537
 O         5.7243076217        5.0468490001      -16.4052319791
 C         7.9652940206        4.1574133173      -16.8587726763
 C         7.3964524643        3.0332078972      -17.6515986361
 C         7.6994933704        1.6941783570      -16.9800076401
 O         8.3573862549        1.6338658513      -15.9598457123
 C         6.9445525908        0.3209097838      -17.4450598055
 C         5.4110483549        0.6584905015      -17.1620652886
 O         4.8126669918        1.3561841657      -17.9369906357
 C         4.5891793800       -0.0212891871      -16.0274287163
 C         3.0720186859        0.1268471976      -16.1550072932
 C         2.5063157037        1.3690609269      -15.4280792348
 O         2.2102747187        2.3765040647      -16.0986980750
 C         2.1789541235        1.2818751250      -13.8505414578
 C         0.6363462960        1.5437565475      -13.6515732342
 O         0.1241530148        2.5414892060      -14.0675101919
 C        -0.3244712331        0.5272899822      -13.0704389302
 C        -1.7885001442        0.8657253499      -13.4245616760
 C        -2.9443007616        0.4441839176      -12.4594743951
 O        -3.3420248488        1.2430652587      -11.6764825342
 C        -3.4056665059       -0.9767874526      -12.4614440058
 C        -3.8150861733       -1.4939323967      -11.0175486815
 O        -3.0761655317       -2.2418876684      -10.4270146660
 C        -5.1632900670       -1.0926931511      -10.5487153334
 C        -5.1219078541       -0.9815554925       -8.8973575679
 C        -5.9188543468       -2.0247958511       -7.9716130855
 O        -6.7393524559       -2.6482531439       -8.5910071544
 C        -5.8160896912       -2.0861535276       -6.3862185099
 C        -4.8900416461       -3.2561002785       -5.8908475591
 O        -4.9830836089       -4.2855464641       -6.5441098881
 C        -3.9673052377       -3.0003830242       -4.7427022311
 C        -3.6808923965       -4.2713990968       -3.9891017138
 C        -4.7451861220       -4.8192926799       -2.9958992704
 O        -5.8031520840       -4.1470333819       -3.0494939558
 C        -4.5544355370       -6.2187668699       -2.2259803412
 C        -5.0764364883       -7.3370518666       -3.1485985246
 O        -4.2542364204       -8.1196876345       -3.6083601610
 C        -6.5797040164       -7.6004102553       -3.3498328746
 C        -6.7350920042       -8.5329823218       -4.6230536962
 C        -6.5652967573       -7.7433746470       -5.9612654594
 O        -6.9730146877       -6.6212472414       -6.0568354142
 C        -5.7838210808       -8.3936215468       -7.1232700870
 C        -6.1638779582       -7.7820064704       -8.5070681541
 O        -5.6968637006       -6.7725214921       -8.9219998477
 C        -7.3583074746       -8.4718321674       -9.2978127000
 C        -7.8145162671       -7.4911941041      -10.4597506659
 C        -8.6830895559       -6.3101710152      -10.1078199411
 O        -8.1273781625       -5.2446084435       -9.9949813533
 C       -10.2119571093       -6.4318224911       -9.7118694809
 C       -10.2395062917       -6.3743055170       -8.0577790633
 O        -9.2045122507       -6.0243914766       -7.5028898667
 C       -11.4632955115       -6.9086230416       -7.2794381369
 C       -11.0575700544       -8.1149632036       -6.4451425142
 C       -12.1692771499       -8.4887833831       -5.3049150259
 O       -13.2796241111       -7.9651697343       -5.3224462742
 C       -11.7962327432       -9.4941286838       -4.2314227637
 C       -10.9962431166       -8.6615770738       -3.0151146187
 O        -9.8277704449       -8.4618002514       -3.1144849850
 C       -11.7947240585       -8.4565528734       -1.6711843599
 C       -11.2086044948       -7.3923883543       -0.7769189786
 C       -12.1974219091       -7.1047253137        0.3663734258
 O       -13.3603206767       -6.6923949134        0.2605152144
 C       -11.8549545264       -7.6059031528        1.8088286743
 C       -11.4755645019       -9.1262614532        1.7084485491
 O       -10.8287472549       -9.5538157397        0.7685116950
 C       -11.7556623282      -10.0036445982        2.8451207794
 C       -10.5522729126       -6.8035331967        2.2700569853
 C       -13.1550920554       -7.3419107344        2.7340058775
 C       -13.1917022380      -10.2229934488       -3.8355148300
 C       -10.7103413834      -10.5219500225       -4.6200830567
 C       -10.8983681615       -5.1519703199      -10.2535769964
 C       -10.8062110303       -7.7900741761      -10.3862750516
 C        -4.2973967135       -7.9514328915       -6.9523585415
 C        -5.9201066314       -9.9284064555       -7.0230649258
 C        -3.0551356535       -6.4478926058       -2.0059370295
 C        -5.2869103881       -6.1582447054       -0.9114477330
 C        -5.4292705022       -0.6270220261       -5.9240602066
 C        -7.2189713589       -2.6025557217       -5.7544899663
 C        -4.6982444915       -1.1179023530      -13.3770108363
 C        -2.3480018793       -1.9219891795      -13.0370932418
 C         2.5470568819       -0.0760965283      -13.2176921753
 C         3.0713290623        2.4584408378      -13.1754807323
 C         7.0977739105        0.1555364600      -18.9062933874
 C         7.5997236117       -0.8382277710      -16.7336685444
 C         8.7659707453        6.9812048395      -15.9230391711
 C         7.7059619850        5.8406002247      -13.8928900128
 C         3.1668649921        5.8151750752      -18.4229939462
 C         3.2122922321        8.3155827199      -17.9168882160
 C        -3.4883515958        7.0209677853      -16.4012372702
 C        -2.7819265947        8.4910128412      -14.3964316774
 H         0.0447452459        5.8455141460      -13.8017667000
 H        -0.4175178425        7.5911029078      -13.2031057513
 H         0.6712756079        7.2576425011      -14.6193682571
 H        -1.4299666806        9.2961374300      -18.4909191481
 H        -1.7250844388        7.5042788387      -18.2020800332
 H         0.8472660473        9.0687371178      -17.8218605597
 H         0.6089906466        8.1587945408      -19.3600772172
 H         3.1550183782        7.9450923803      -14.2467451708
 H         4.0762150251        8.7727904537      -15.5918635313
 H         4.9598685854        6.0936999575      -14.3121772781
 H         5.0631122175        7.6747989295      -13.4700886784
 H         8.4695890654        3.6675529832      -16.0038888898
 H         8.6723239907        4.7068578155      -17.4474545015
 H         7.8958786450        3.0956933411      -18.6039352307
 H         6.3558308535        3.1903735546      -17.7785672676
 H         4.9506386662        0.4310197246      -15.0558685685
 H         4.7062497736       -1.0950745534      -16.0520300262
 H         2.4046594149       -0.6759886185      -15.7604073682
 H         2.8828424494        0.1546693301      -17.1446564953
 H        -0.1518137378        0.2913400906      -11.9887364861
 H        -0.0870716176       -0.4674049910      -13.5251449802
 H        -2.0477963552        0.6531892236      -14.5360205819
 H        -1.8921804679        1.8873974815      -13.5208594019
 H        -5.9648344072       -1.8184070537      -10.6914415564
 H        -5.4749205058       -0.1183450867      -10.9263516888
 H        -5.5800760425       -0.1016821798       -8.6827267411
 H        -4.1747227875       -0.8021340074       -8.5427729391
 H        -4.2497311190       -2.2457057062       -4.0352620537
 H        -3.0831044100       -2.6057946234       -5.2190141919
 H        -2.7890908219       -4.1900590612       -3.3521554600
 H        -3.4810541621       -5.1723088664       -4.6803405361
 H        -6.8873671447       -6.5901063179       -3.4158055378
 H        -6.9212468719       -8.0274187846       -2.4249694299
 H        -7.6819634592       -8.8967866008       -4.5806940712
 H        -5.9719013078       -9.3692322787       -4.4110628243
 H        -8.2133648762       -8.5839531858       -8.5152476927
 H        -7.0659265837       -9.4525391745       -9.6964256766
 H        -8.3567175916       -8.1376220725      -11.2123634058
 H        -6.8360753333       -7.1979716803      -10.9346493684
 H       -12.3296504265       -7.1321842155       -7.9506477264
 H       -11.8324026719       -6.1738110017       -6.5461285854
 H       -10.2101111985       -7.7859323320       -5.8406967029
 H       -10.7527206143       -8.9706059583       -7.0381989018
 H       -11.9709013888       -9.4417748088       -1.1651865378
 H       -12.8422577813       -8.2359883086       -1.8718054281
 H       -11.1270196131       -6.4792157954       -1.3765456006
 H       -10.2091586567       -7.6680190752       -0.4596724876
 H       -11.3221353098      -10.9808174087        2.5953514041
 H       -12.8666378549      -10.0875696509        3.0115211657
 H       -11.1543684997       -9.6501261794        3.7098949636
 H       -10.9599271106       -5.8615578228        2.7297376020
 H        -9.9792296477       -6.6392308290        1.3975983893
 H        -9.8560294632       -7.3128786024        2.9946590644
 H       -13.1031227353       -7.8782351769        3.6880088003
 H       -14.0251890672       -7.7257901366        2.2401571209
 H       -13.3299575722       -6.2368455661        2.8948837911
 H       -13.0827882071      -10.7325076079       -2.8210752852
 H       -13.5662220803      -10.9919206407       -4.4722603890
 H       -14.0025354223       -9.4961580460       -3.8592041815
 H        -9.7218529972      -10.0370266958       -4.7474876878
 H       -10.9387985875      -11.0982800960       -5.5041097754
 H       -10.6344117839      -11.4129452061       -3.9371956846
 H       -11.8527570978       -5.2972862196      -10.7214705114
 H       -10.3527586589       -4.5686464414      -10.9849009967
 H       -11.2350698028       -4.5008701097       -9.4522713420
 H       -10.6491203007       -7.6877359595      -11.4546052937
 H       -11.8209671899       -7.8000806024      -10.1717366830
 H       -10.2650000088       -8.6458542844       -9.9198784134
 H        -3.6681254159       -8.5039343496       -7.6375052083
 H        -3.9294580987       -8.2667158534       -6.0172533571
 H        -4.1808109057       -6.8835256253       -7.1332836626
 H        -5.9036659608      -10.3419124922       -5.9719268044
 H        -5.2131611528      -10.4138023600       -7.6368525238
 H        -6.8985789483      -10.2897789586       -7.3875337544
 H        -2.5751172381       -5.6542919982       -1.4459789788
 H        -2.5680946319       -6.7211874556       -2.9061924325
 H        -2.8863465683       -7.2523461314       -1.2792150564
 H        -4.7127801893       -5.7122805106       -0.0599116592
 H        -5.6001570136       -7.1502675361       -0.7783107491
 H        -6.1903698765       -5.5548746705       -1.0057791454
 H        -5.5034525518       -0.5096366275       -4.8353472667
 H        -6.1449672770        0.1160695612       -6.3356388241
 H        -4.4391406106       -0.4054901774       -6.3821665157
 H        -7.7177899328       -3.4425161557       -6.2582071052
 H        -7.9556875699       -1.7415801094       -5.8068156217
 H        -7.0899005466       -2.8474807337       -4.6991288569
 H        -4.9715913767       -2.1559283641      -13.5038427066
 H        -4.3495614724       -0.8851948182      -14.4246641035
 H        -5.6025229308       -0.5854583274      -13.0338437051
 H        -2.7590324682       -2.9098520093      -13.1262276948
 H        -1.5460193338       -1.9645962008      -12.3249957258
 H        -1.8798579392       -1.5406321051      -13.9570519567
 H         2.0115987173       -0.9461470265      -13.6837575924
 H         2.2856670021       -0.0364997045      -12.1914295452
 H         3.6436298553       -0.3261525030      -13.2315453785
 H         2.9964678978        2.4348586920      -12.0496400423
 H         2.7607578342        3.4347548166      -13.5066536619
 H         4.0823895277        2.3096751120      -13.4514778180
 H         6.4666848755        0.8071366933      -19.3803056344
 H         6.8305189599       -0.8021727570      -19.3900563894
 H         8.1215811959        0.5086654904      -19.1996530518
 H         8.5873054847       -1.1265186751      -17.2785166005
 H         6.9120189686       -1.6566604917      -16.7722644403
 H         7.8310785480       -0.5903290150      -15.6790613674
 H         9.5308599249        6.1781400969      -16.0270430654
 H         9.0299843774        7.7853133290      -15.2380639972
 H         8.6483386486        7.3107681844      -16.9147772744
 H         6.9453370891        5.1325796391      -13.6293123013
 H         7.7947863104        6.6614195938      -13.2134993354
 H         8.6002287435        5.3339698292      -13.9569572321
 H         3.3749853417        6.2985426511      -19.2869765221
 H         2.3885535468        5.0090965210      -18.6195576470
 H         4.0484147343        5.2608175831      -18.1379581409
 H         2.9924546261        9.0733980309      -17.2111897828
 H         2.8654872324        8.6329674429      -18.8474874623
 H         4.2930197854        8.3540717539      -17.8493131788
 H        -3.0703045748        6.0397788781      -16.7084419144
 H        -3.7346015200        7.5504709752      -17.2660461559
 H        -4.3414071191        6.9784672351      -15.6724386565
 H        -1.9460153363        8.8716955447      -13.7840513858
 H        -3.4964450889        7.8328103128      -13.8039394832
 H        -3.3913939542        9.4156926621      -14.5956821596
 Na        0.7988049247        4.2541056642      -15.5169582185
 Na       -7.0739860417       -4.9785286393       -7.7750573349
