232

 C        -0.2292041516        6.6413576690      -13.8601711962
 C        -1.4351560987        6.3227343568      -14.9843749411
 O        -1.5159061250        5.2400159766      -15.4844811978
 C        -2.2814746742        7.5048707215      -15.3779600208
 C        -1.1468002288        8.3722938485      -16.2316915229
 O        -0.4097763405        9.1329154188      -15.6221654736
 C        -1.1087216944        8.0085208962      -17.7123851868
 C         0.4047069953        8.1100622433      -18.3490588341
 C         1.1926607019        6.9572541337      -17.7256317891
 O         0.5405521075        6.0254291120      -17.3695013007
 C         2.7665046028        6.9732217306      -17.5152893883
 C         3.0041312867        6.9297639469      -16.0010378677
 O         2.6937701364        5.9139240851      -15.4314554996
 C         3.9094696229        7.9986917815      -15.2143323624
 C         5.0081283477        7.2734378960      -14.4847942118
 C         6.3146230374        7.2978284060      -15.3913186583
 O         6.4719941539        8.2297716200      -16.1490743518
 C         7.4831765684        6.2509158772      -15.1862054835
 C         7.0788979349        5.0950030337      -16.2659859073
 O         5.9126705195        4.7371615451      -16.1564840540
 C         8.1206673652        4.4095700077      -17.2397783768
 C         7.5537800420        3.1911189143      -17.9482678758
 C         7.6278185274        1.9145646868      -17.0601651268
 O         8.1285167592        1.8893504766      -15.9468428426
 C         6.8684866975        0.5730327079      -17.5644391959
 C         5.3023863649        0.8547990799      -17.3930697454
 O         4.6484262764        1.5165403948      -18.1815598468
 C         4.6763737423        0.0726244597      -16.1891125849
 C         3.0615998895        0.0401259569      -16.3451852665
 C         2.4526584426        1.2018836696      -15.5969246391
 O         2.0238038452        2.1476508961      -16.2988326291
 C         2.1787229836        1.2811816284      -13.9656355807
 C         0.5964398468        1.6270638548      -13.6854395951
 O         0.2136107504        2.7173180398      -14.0105829323
 C        -0.3066425009        0.6158156262      -12.9960737741
 C        -1.7402149242        0.7813510340      -13.4836406342
 C        -2.8592660336        0.2907008676      -12.3172908594
 O        -3.3563728560        1.0969390312      -11.6061490507
 C        -3.4905703025       -1.1644382012      -12.4293221079
 C        -3.8431831968       -1.6100174678      -10.9240669111
 O        -2.9858099880       -2.0619627237      -10.1889173846
 C        -5.2424060818       -1.4042519840      -10.3614417350
 C        -5.1210210918       -1.1782151931       -8.8351617689
 C        -5.9252499068       -2.2693212757       -7.9383561578
 O        -6.6994227848       -3.0007866606       -8.5037361669
 C        -5.9592765545       -2.1808748210       -6.3641705869
 C        -5.0878440653       -3.3715246893       -5.7930105088
 O        -5.0434833093       -4.3451115480       -6.5280845445
 C        -3.9824343664       -3.0965215733       -4.7093946165
 C        -3.5070606572       -4.3436740585       -3.9901415074
 C        -4.7028527201       -4.7878711449       -2.9642588904
 O        -5.8313176353       -4.2752766015       -3.1025835050
 C        -4.5736171824       -6.0357876718       -2.1698913562
 C        -5.0271201072       -7.3289242387       -3.1324079636
 O        -4.2475793439       -8.0904407288       -3.6730916682
 C        -6.6309147309       -7.3454989197       -3.3563781834
 C        -7.0551731657       -8.3391990219       -4.5191885912
 C        -6.7915239431       -7.7045675436       -5.8634857585
 O        -7.3250218343       -6.6253333847       -5.9855681382
 C        -5.8132557192       -8.2642491727       -6.9858295563
 C        -6.3234046189       -7.7018113432       -8.3489961497
 O        -5.8794408411       -6.7173965719       -8.8513147639
 C        -7.4333351793       -8.5177048036       -8.9969743752
 C        -7.9698238487       -7.8646248923      -10.2980672315
 C        -8.6067392546       -6.5562752303      -10.1236231779
 O        -7.9997356960       -5.5314737445      -10.2683096785
 C       -10.2056301777       -6.4366869703       -9.8534259124
 C       -10.2717113207       -6.3561262260       -8.2407375600
 O        -9.5356777557       -5.6228987694       -7.6347955488
 C       -11.4443802679       -7.0409767450       -7.5149357893
 C       -11.0551870441       -8.0246706917       -6.3935980182
 C       -12.1881149313       -8.4221898781       -5.4444043872
 O       -13.1901277015       -7.7376149157       -5.2558326244
 C       -11.8161497251       -9.5112495765       -4.3484301782
 C       -11.0518281262       -8.5933385979       -3.2071353233
 O        -9.9635597110       -8.1327266899       -3.3939755083
 C       -11.8392195098       -8.3816397423       -1.9399701517
 C       -11.1942180120       -7.4609729681       -0.9141643673
 C       -12.0974423348       -7.1530459365        0.2920189469
 O       -13.0773801480       -6.4054615905        0.2400776419
 C       -11.6998671273       -7.5401986831        1.7513595691
 C       -11.4173341253       -9.0191467182        1.9731414582
 O       -11.5654565852       -9.9097211969        1.1418873186
 C       -10.8629033773       -9.3490504062        3.4493180882
 C       -10.2984779607       -6.7951222440        2.0015232887
 C       -12.8508248084       -7.0783139438        2.7152173120
 C       -13.0701484731      -10.2964753104       -3.9196921005
 C       -10.8768694756      -10.5479729561       -5.0653965446
 C       -10.7033117308       -5.0326854716      -10.3946994072
 C       -11.0312242895       -7.6471778650      -10.3832830908
 C        -4.4150037820       -7.7357446418       -6.6512072008
 C        -5.7553941792       -9.8416570569       -6.9448912657
 C        -3.0924118969       -6.3925249433       -1.8343930279
 C        -5.3632535739       -5.9716572586       -0.8144421704
 C        -5.2831613373       -0.7741727840       -5.9751552524
 C        -7.3485596341       -2.4828776734       -5.7230752027
 C        -4.7681487244       -1.0215040493      -13.3406828780
 C        -2.4584973349       -2.3069218147      -12.9059249416
 C         2.5950220455        0.0041242120      -13.1016653525
 C         2.9225335834        2.5183799383      -13.3299331508
 C         7.2243724641        0.3675111974      -19.0428817600
 C         7.3429603469       -0.5759641410      -16.6907088849
 C         8.8736431205        6.8379256673      -15.5910473803
 C         7.4835286067        5.5507398015      -13.7237388357
 C         3.2826219122        5.5735444958      -18.1397921302
 C         3.4086373785        8.1993991060      -18.2103657820
 C        -3.4393347369        7.1090153974      -16.2253695019
 C        -2.7588657819        8.3879487506      -14.2101322602
 H        -0.0838015427        5.8080458633      -13.2498674125
 H        -0.4354157371        7.5541958504      -13.3743029956
 H         0.7085771784        6.8832995141      -14.3233373540
 H        -1.8628704154        8.4960244879      -18.2228323767
 H        -1.3074899122        6.9266454155      -17.7847857375
 H         0.8465450983        9.0694554517      -18.0972573004
 H         0.3507830359        7.9613503930      -19.4102677472
 H         3.3786399465        8.5667635764      -14.4864614611
 H         4.3613687022        8.7007799952      -15.8865339569
 H         4.6088562047        6.2839169953      -14.1175688610
 H         5.2437024446        7.8436658319      -13.5909466278
 H         8.9971402097        4.0173386840      -16.6349339847
 H         8.4712159393        5.1832982188      -17.9332265663
 H         8.2399681968        3.0867902728      -18.7503564418
 H         6.5468455035        3.4441969057      -18.3373725992
 H         4.8643618114        0.4091305020      -15.1590814287
 H         4.9116314921       -0.9609989869      -16.2828532303
 H         2.5979882142       -0.9630042744      -16.0768516551
 H         2.7087267011        0.2566584780      -17.3520627967
 H        -0.3294033144        0.6964254881      -11.8983503540
 H         0.0291081782       -0.3734600339      -13.0342473538
 H        -2.0824039934        0.3388403848      -14.5455782909
 H        -1.9392789388        1.8168214980      -13.5086772735
 H        -5.8767817399       -2.3587906085      -10.5038833911
 H        -5.8091486527       -0.6071139002      -10.8270232369
 H        -5.4758067434       -0.1335924234       -8.6406535896
 H        -3.9592236818       -1.0594361415       -8.5949010690
 H        -4.2773815989       -2.2940318603       -4.0304747394
 H        -3.0844870922       -2.5452638003       -5.2394736089
 H        -2.6705988007       -4.2007245476       -3.2644944374
 H        -3.0918290113       -5.0303421272       -4.6953877422
 H        -6.8437061546       -6.2479559224       -3.6154767006
 H        -6.9384435680       -7.5781681981       -2.2664487308
 H        -8.0920179584       -8.4119629197       -4.3624078071
 H        -6.5632786090       -9.3317680570       -4.3515091016
 H        -8.2617923816       -8.5404595866       -8.3708014420
 H        -7.0020928534       -9.5139600690       -9.1633548951
 H        -8.5780333814       -8.6119658350      -10.7924031942
 H        -7.1482499342       -7.6496093203      -10.9518748522
 H       -12.0450517644       -7.5674945513       -8.2902628996
 H       -12.1644952959       -6.3133632350       -7.1852165479
 H       -10.3489280386       -7.4685374453       -5.7738852603
 H       -10.5737413528       -8.9474552467       -6.8153656501
 H       -12.2611548273       -9.2649146779       -1.6318597352
 H       -12.8036436216       -7.9211779185       -2.2492374655
 H       -10.9847212460       -6.5127787851       -1.4987659609
 H       -10.2453614949       -7.9147079477       -0.5860473626
 H       -10.0778594893      -10.0492890550        3.5018531555
 H       -11.7885715142       -9.8174277009        3.8480396448
 H       -10.5589278824       -8.5008131083        3.9570628097
 H       -10.0585372813       -5.9190263917        1.3470187597
 H        -9.5615716211       -7.5929426218        1.8786379667
 H       -10.3377244976       -6.3799599656        3.0280677732
 H       -12.5291230403       -7.3089963826        3.7651299447
 H       -13.6792119998       -7.7480009425        2.6669388108
 H       -13.1023815539       -6.0693548315        2.4517766245
 H       -12.9412900577      -10.9602520186       -3.0451722643
 H       -13.4830764635      -10.8038109292       -4.7600456096
 H       -13.9223296235       -9.6091658665       -3.7013970638
 H        -9.8933134610      -10.1385190947       -5.3329557094
 H       -11.2868313450      -10.9782583689       -5.9629271264
 H       -10.8024148804      -11.4163848476       -4.4340168368
 H       -11.5559284849       -4.5482904075       -9.8804123709
 H       -11.0869662516       -5.1123634294      -11.4122302755
 H        -9.9290308588       -4.2747148143      -10.4373577911
 H       -10.7928531184       -7.7041593362      -11.3966281691
 H       -12.0711577002       -7.4758640651      -10.2084903176
 H       -10.7036845587       -8.5463816487       -9.7926523015
 H        -3.7149298693       -8.2327775415       -7.3818126065
 H        -4.2066567002       -8.0527375820       -5.6272510943
 H        -4.1848050641       -6.6356738785       -6.8390814111
 H        -4.9673362053      -10.1123587745       -6.2261009973
 H        -5.5288254700      -10.2210408229       -7.8458607660
 H        -6.7065232133      -10.3648383980       -6.6441714669
 H        -2.5914810900       -5.6800263510       -1.1394850522
 H        -2.4684763875       -6.4549372611       -2.6956217350
 H        -2.9779011910       -7.3251173233       -1.2547808950
 H        -4.8201987028       -5.1203852755       -0.3124408507
 H        -5.3886690536       -6.9051104075       -0.2482906157
 H        -6.3738053645       -5.6941091174       -0.9969246100
 H        -5.1828089109       -0.8637653186       -4.9285255967
 H        -5.9496203389        0.0435856127       -6.1800506264
 H        -4.3005032963       -0.6182443951       -6.4048785009
 H        -7.7365295140       -3.4185952084       -6.1325569349
 H        -8.1740220855       -1.8157409887       -6.0099526768
 H        -7.1915537409       -2.5933740126       -4.6992436135
 H        -5.6072360228       -1.4834608268      -12.9624708845
 H        -4.5399165239       -1.5583472421      -14.2487505604
 H        -5.0096285203        0.0236504778      -13.5879411051
 H        -3.0410095252       -3.2319391430      -12.8828935314
 H        -1.5066470703       -2.3348150423      -12.3970906196
 H        -2.0864297379       -2.0267612541      -13.9021854989
 H         1.9841097434       -0.8510602905      -13.3170585602
 H         2.6962080823        0.3037750157      -12.0894165923
 H         3.7257740523       -0.2363963057      -13.2221481721
 H         2.5848640670        2.7146453742      -12.2635739607
 H         2.6961568314        3.4565881328      -13.8797261813
 H         3.9798984290        2.4195949612      -13.3970174621
 H         7.1295181005        1.2584446554      -19.5459576964
 H         6.5159015676       -0.3004497930      -19.5798966742
 H         8.2618442533        0.0306339922      -19.2403025440
 H         8.4251290628       -0.4425425642      -16.7302732609
 H         7.1095006893       -1.5722487040      -17.0826490319
 H         6.8984626889       -0.4685102167      -15.7404396776
 H         9.7160044047        6.0731787557      -15.5006251648
 H         9.0263961304        7.6246513463      -14.8792480733
 H         8.8992694203        7.0769114273      -16.6135842212
 H         6.3838701707        5.5350993085      -13.3544067662
 H         7.8874343788        6.3222566827      -12.9848900254
 H         8.0312708134        4.6265140981      -13.7588910595
 H         2.7189628132        5.3018564041      -18.9957014616
 H         3.3292545373        4.7106347146      -17.3917041211
 H         4.3003429929        5.6630863151      -18.5446590441
 H         3.2157228616        9.0922640903      -17.6023405784
 H         3.0430518625        8.4875884179      -19.2178741743
 H         4.5671799736        8.1786328954      -18.3334110012
 H        -3.1457008017        6.6041262658      -17.1347416728
 H        -3.9726609057        8.0021016999      -16.4339025922
 H        -4.1642343345        6.6196325358      -15.5617013787
 H        -1.9249558103        8.9890788075      -13.8255689738
 H        -3.1133649832        7.8105624260      -13.3753270416
 H        -3.5878918114        8.9938259463      -14.4113195605
 Na        0.8574382973        4.3655272278      -15.6956516799
 Na       -6.9671822702       -5.2059467749       -7.8125625937
