232

 C        -0.3677610211        6.4675662898      -13.7320072698
 C        -1.4323143585        6.3475614254      -14.8975684648
 O        -1.5118472135        5.2259020786      -15.4280624449
 C        -2.3014326903        7.5344481011      -15.3088859566
 C        -1.2211300315        8.3000568978      -16.2529677151
 O        -0.4771562434        9.0015703753      -15.6321621583
 C        -0.9895688755        8.0087644551      -17.7619214415
 C         0.4553428291        8.1240264861      -18.2782732898
 C         1.2240080358        6.9318357982      -17.7876069877
 O         0.6737550224        5.9129202566      -17.5052787265
 C         2.7983609878        6.9512914940      -17.6560358162
 C         3.1627371650        6.9617917914      -16.0206463615
 O         2.6415212564        6.1077172227      -15.3070924581
 C         3.9469785577        7.9829225782      -15.2307125570
 C         5.1469857713        7.2706361603      -14.5247028820
 C         6.4262570169        7.3403283676      -15.3390582646
 O         6.4718515210        8.1427690278      -16.2644990703
 C         7.4655003577        6.2034590040      -15.1900335914
 C         7.0662393615        4.9823244255      -16.1797482349
 O         5.9641453779        4.4981463197      -16.1373433063
 C         8.0532981896        4.5078054033      -17.2594327907
 C         7.5561162946        3.2375469704      -17.9108086850
 C         7.4973316504        2.0954119491      -17.0068182060
 O         8.0488313821        2.0466883473      -15.9653464306
 C         6.8304116046        0.6887401267      -17.5516061161
 C         5.2398784388        0.8242267638      -17.4291940755
 O         4.6739685226        1.5509964102      -18.1734841323
 C         4.5863801604        0.1331888228      -16.2798205224
 C         2.9963039514        0.0639239287      -16.2333598844
 C         2.2648413814        1.2867037044      -15.6420045397
 O         1.9288776853        2.2403611881      -16.3549265437
 C         2.0807880314        1.3292840474      -14.0165149833
 C         0.5766428206        1.6108019262      -13.6804335960
 O         0.1895735944        2.7259596549      -13.9287849981
 C        -0.3116516049        0.5940204259      -12.9364087951
 C        -1.7807744933        0.6140096148      -13.3355804830
 C        -2.8268643558        0.2821983873      -12.3265303915
 O        -3.2620117658        1.0401180379      -11.5277962069
 C        -3.5193985897       -1.2522845201      -12.3631803636
 C        -3.8497203689       -1.6148241094      -10.8666817951
 O        -2.9009437380       -1.9141100628      -10.1904543769
 C        -5.2778668463       -1.5041389119      -10.2540383664
 C        -5.1062432213       -1.2816180495       -8.7471439195
 C        -6.0409093508       -2.1277778340       -7.9746788003
 O        -6.5824272147       -3.0831612561       -8.4992501378
 C        -5.9302600477       -2.2043073130       -6.3722446066
 C        -4.9232414153       -3.3860598673       -5.9737319327
 O        -5.0977957990       -4.4980242233       -6.4071542135
 C        -4.0448004974       -3.1079126295       -4.8068453036
 C        -3.5874813595       -4.2915025100       -3.9776674786
 C        -4.7167141805       -4.8775207021       -3.1044088094
 O        -5.7481307805       -4.2131802262       -3.2005540674
 C        -4.5870764713       -6.1282909246       -2.2054188901
 C        -5.1136955358       -7.2539554824       -3.0579625295
 O        -4.2968749736       -8.0241349216       -3.5518959500
 C        -6.5639964727       -7.3641743601       -3.3242380654
 C        -6.9396756858       -8.2948744108       -4.4543961321
 C        -6.7916295971       -7.6113672702       -5.7962293422
 O        -7.3760104422       -6.6089343131       -6.0654886854
 C        -5.8164534837       -8.2529123684       -6.8559913824
 C        -6.3586411883       -7.7907603447       -8.2902591172
 O        -5.7785205900       -6.9174765341       -8.8693371693
 C        -7.5978274034       -8.6021091529       -8.9147439317
 C        -8.0406045058       -8.0624760050      -10.3236418776
 C        -8.6556556423       -6.6552602717      -10.2310959030
 O        -7.9865113618       -5.6231566881      -10.2059704422
 C       -10.1726753156       -6.4413302883       -9.8285969898
 C       -10.3351010374       -6.3088794187       -8.2375141222
 O        -9.5832039009       -5.5236311970       -7.6161640875
 C       -11.4170563484       -7.0373540586       -7.5263641952
 C       -10.9752115323       -7.8974313677       -6.3785364910
 C       -12.1212616543       -8.2979248114       -5.4497455780
 O       -13.1776185256       -7.6802587191       -5.3203796602
 C       -11.7987157863       -9.5329380843       -4.5014796347
 C       -11.1519055954       -8.6348135610       -3.2975914798
 O       -10.0525330543       -8.1427067631       -3.5200532536
 C       -11.9199999821       -8.2577843548       -1.9522872688
 C       -11.1455870133       -7.5685836670       -0.7846688109
 C       -12.0652307512       -7.1072959360        0.2852277040
 O       -13.0133545980       -6.4095285554        0.0671064800
 C       -11.5015974705       -7.4724026713        1.7622173897
 C       -11.3752975910       -9.0408430144        2.1255235561
 O       -11.8099075100       -9.8737878779        1.3593318016
 C       -10.6556158395       -9.2065326492        3.4282995021
 C       -10.1854737409       -6.7826391215        1.8852427037
 C       -12.7140414197       -6.9923767048        2.6425644079
 C       -13.1146538879      -10.1836463655       -4.0939930193
 C       -10.7710751960      -10.5005907355       -5.0820736470
 C       -10.6602176847       -5.0901556987      -10.3342916496
 C       -10.9790052282       -7.5666051297      -10.4558804713
 C        -4.4593116986       -7.5658350130       -6.7065026807
 C        -5.8679722177       -9.7902971084       -6.7770487821
 C        -3.0611924597       -6.4032854337       -1.7673584660
 C        -5.4268938592       -5.9662397278       -0.8466103532
 C        -5.2943062321       -0.8262171469       -5.8716260103
 C        -7.3728663335       -2.3447732078       -5.9128718757
 C        -4.7352171355       -1.0859569251      -13.2001278486
 C        -2.5385777418       -2.3668276652      -12.8876823149
 C         2.6073811654        0.0530136026      -13.3469488651
 C         2.8242536948        2.5450711514      -13.4393988875
 C         7.2171792800        0.4926026990      -19.0664827104
 C         7.4124747884       -0.5165067851      -16.7544159592
 C         8.8983853142        6.7618664913      -15.4153723222
 C         7.4015824388        5.4947152796      -13.8505589744
 C         3.2898072234        5.5629708412      -18.1162465673
 C         3.5240584027        8.1045767711      -18.3284750143
 C        -3.5289828418        6.9542463259      -15.9955281905
 C        -2.6307907708        8.4617256766      -14.1520388197
 H        -0.3193996859        5.5444376544      -13.1972290623
 H        -0.5708037392        7.3767308096      -13.1860686807
 H         0.5838858622        6.6927662348      -14.1221317917
 H        -1.5749159754        8.8376076602      -18.1908567822
 H        -1.3951506994        7.0513172589      -18.1933546736
 H         0.8530550574        9.0138283044      -17.8019878191
 H         0.4895947809        8.1881664655      -19.3752334023
 H         3.1943248932        8.2858660918      -14.4765762400
 H         4.1960399140        8.8683666490      -15.7771366501
 H         4.7853890795        6.2294719594      -14.5360344576
 H         5.2737242451        7.4820280934      -13.4797528051
 H         9.0468744160        4.2663085504      -16.7961233803
 H         8.1849780764        5.3119158834      -17.9937180132
 H         8.2618377329        3.0798823007      -18.6883883438
 H         6.6417177106        3.4564019776      -18.3308685953
 H         4.7791901957        0.8008988755      -15.3815216842
 H         4.8821955490       -0.8720382133      -15.9977264602
 H         2.7235458861       -0.8986163834      -15.7381819658
 H         2.5350885343        0.0078239875      -17.1410793736
 H        -0.1614008961        0.7327585569      -11.8633974835
 H         0.0168362482       -0.4402118760      -12.9302476398
 H        -2.0070109127       -0.1460743599      -14.1378741031
 H        -2.0678254671        1.6137597504      -13.6676603235
 H        -5.7345709203       -2.4724835045      -10.5696358264
 H        -5.9507750739       -0.7092400884      -10.6749440170
 H        -5.2217902247       -0.2536190653       -8.5673533973
 H        -4.0822499672       -1.4423873819       -8.5286738515
 H        -4.5848473511       -2.3495976134       -4.2123669686
 H        -3.1177936069       -2.5509637295       -4.9832917691
 H        -2.7244272724       -4.0677526674       -3.3793315765
 H        -3.1372872234       -5.0970878129       -4.6952818494
 H        -6.9109110568       -6.3718882320       -3.6313254837
 H        -6.8405850802       -7.5895488711       -2.2709961772
 H        -7.9077321746       -8.4789103606       -4.2054461393
 H        -6.3572033945       -9.2454892436       -4.4652379231
 H        -8.5363466293       -8.5192485253       -8.2563849058
 H        -7.2498595303       -9.6048109460       -9.0396201706
 H        -8.6765275004       -8.8804419961      -10.7336153011
 H        -7.1273673734       -8.0341176510      -10.9789664296
 H       -12.0095241741       -7.6471901492       -8.2398282745
 H       -12.1970489423       -6.2702005503       -7.2752732877
 H       -10.2257700828       -7.3396044727       -5.8154087024
 H       -10.5266201494       -8.8024858706       -6.7965455618
 H       -12.2585285734       -9.2768900200       -1.6580600348
 H       -12.8879045111       -7.8561501891       -2.0524722420
 H       -10.5362187740       -6.7255210273       -1.1774404913
 H       -10.4731470093       -8.3416985651       -0.3418263912
 H        -9.7030865067       -9.6961262845        3.3219082773
 H       -11.2739606438       -9.7594122207        4.0889830974
 H       -10.4192252865       -8.1529008677        3.7717629798
 H       -10.0188076336       -5.9451520818        1.0814591200
 H        -9.4250269603       -7.5307269449        1.7388747374
 H       -10.1618349766       -6.1907293183        2.9026880985
 H       -12.3894730352       -6.9038007287        3.6268779010
 H       -13.4459600460       -7.7597383978        2.7746022768
 H       -13.0616627525       -6.0462354742        2.1716408907
 H       -12.9537035235      -10.6742600805       -3.0352085594
 H       -13.5654015999      -10.8751172557       -4.8104748645
 H       -13.8923405237       -9.4479779729       -3.9451220051
 H        -9.9040343121      -10.0671192159       -5.5440072509
 H       -11.1894864027      -11.1334299659       -5.8491500561
 H       -10.5322234663      -11.2400909703       -4.2549485139
 H       -11.1202634254       -4.4519508143       -9.6407794946
 H       -11.4312235566       -5.1835417568      -11.0686671639
 H        -9.8879235647       -4.5160839559      -10.8473612755
 H       -10.5178494926       -7.5978643329      -11.4245248203
 H       -11.9726532428       -7.3627331867      -10.4345300392
 H       -10.7741571492       -8.4132112595       -9.8847165030
 H        -3.9550475131       -7.4347859218       -7.6898207693
 H        -3.9234285085       -8.0504178686       -5.9324020380
 H        -4.5624511091       -6.5352145322       -6.4084454620
 H        -5.4293718620      -10.1881067810       -5.8468608300
 H        -5.2799695554      -10.2264139617       -7.6579508604
 H        -6.8589991143      -10.1430687984       -6.9148185758
 H        -2.7218471691       -5.4848502193       -1.2703009651
 H        -2.3106096417       -6.5581729712       -2.5487236187
 H        -2.8640660372       -7.1602409336       -0.9921481642
 H        -5.2146612292       -4.9660331422       -0.4493680231
 H        -5.2111289042       -6.7238240284       -0.1486490411
 H        -6.4879561299       -6.0959111757       -1.1112771047
 H        -5.2414564154       -0.8355305693       -4.8049107242
 H        -5.8676101531       -0.0071417849       -6.2394883711
 H        -4.2711218711       -0.7948018129       -6.1966773585
 H        -7.9446892215       -3.1309762315       -6.3561465854
 H        -7.8843579364       -1.4833103984       -6.3472016851
 H        -7.4397890175       -2.4212319379       -4.8197344434
 H        -5.4958635686       -1.7243472357      -12.8066336264
 H        -4.5842787761       -1.4274634096      -14.2282487608
 H        -5.0674682795       -0.0848508446      -13.2276971651
 H        -3.1913776828       -3.1817908924      -13.1673361319
 H        -1.7786965647       -2.6388158777      -12.1712234829
 H        -1.8848778113       -2.0036434068      -13.7072869881
 H         1.9777615805       -0.8319315069      -13.7088535709
 H         2.6712897388        0.2239420958      -12.2840066836
 H         3.6402424264       -0.0769518400      -13.5196404229
 H         2.6395939726        2.6414887804      -12.3237556270
 H         2.5004742399        3.4891843044      -13.8677658354
 H         3.9074673282        2.4953374319      -13.6738974924
 H         6.9234028361        1.3556905821      -19.6295664097
 H         6.8628648394       -0.4100997258      -19.5361729112
 H         8.3041104994        0.5164688521      -19.1333860242
 H         8.5469522847       -0.3920538455      -16.5680428819
 H         7.3063569433       -1.3644789199      -17.3444926524
 H         6.7410566012       -0.6462440562      -15.9190793256
 H         9.7440656327        6.0684063712      -15.4025497626
 H         8.9800964284        7.4412993098      -14.5640358282
 H         8.9184113822        7.1961354049      -16.3872596396
 H         6.4643296546        5.2198100277      -13.6132838914
 H         7.6612392636        6.2258582975      -13.0657826748
 H         8.1560150911        4.6824872992      -13.9631464770
 H         2.7181291602        5.2179815147      -18.9297599474
 H         3.2316356552        4.7777673375      -17.3212645662
 H         4.2857223659        5.5364189719      -18.4979844408
 H         3.1460629664        9.0683282275      -17.8897509187
 H         3.4861275826        8.2766560161      -19.3749855329
 H         4.5670549702        8.0456528565      -18.1326820876
 H        -3.2104163371        6.6049009018      -16.9685032960
 H        -4.2584652244        7.6766920489      -16.0552538577
 H        -4.0232775060        6.2222437444      -15.3878174368
 H        -1.8449939040        9.0616361755      -13.7882936182
 H        -2.9239868305        7.8202678878      -13.2610903557
 H        -3.5741882214        9.0217907998      -14.2797301285
 Na        1.0578384762        4.2809868483      -15.8458093862
 Na       -7.1610709853       -5.1724538621       -7.8161086159
