232

 C        -0.4649332786        6.3231494221      -13.5644119957
 C        -1.4063836494        6.2327031957      -14.7190642251
 O        -1.3594984817        5.1944014783      -15.4464275538
 C        -2.2466208771        7.4439764871      -15.2462981959
 C        -1.2260089248        8.2651800672      -16.2353524279
 O        -0.3743880959        8.9803193269      -15.7572886384
 C        -1.0789760453        8.1103004294      -17.7714559943
 C         0.4435037066        8.1729238473      -18.0411234224
 C         1.3102419516        6.8761802660      -17.7156542202
 O         0.7660885249        5.7641526272      -17.6323196456
 C         2.9381286787        6.9224164271      -17.5320716019
 C         3.0680437825        7.0061593181      -15.9654227652
 O         2.4857846134        6.1117035160      -15.3051171470
 C         3.9724115523        7.9681124754      -15.2955848252
 C         5.1629939856        7.2279082039      -14.6005042606
 C         6.4043234603        7.2286061351      -15.5125653245
 O         6.6157307938        8.0643924614      -16.3723659873
 C         7.4459622550        6.1088680007      -15.1728609204
 C         7.0268430530        5.0075133186      -16.1889671014
 O         6.0063539415        4.3731541549      -16.0426720364
 C         8.0035784312        4.6546847653      -17.2985781371
 C         7.5506354227        3.2889967701      -18.0401675269
 C         7.4444931457        2.0902948268      -16.9850330342
 O         7.9365227846        2.1767687742      -15.8693595043
 C         6.8008224782        0.7579085521      -17.5321714882
 C         5.2164158935        0.9015123507      -17.4167834681
 O         4.6441300969        1.5973917139      -18.2675670630
 C         4.4487803596        0.2090123380      -16.1645008072
 C         2.9590707581        0.1518100349      -16.2552099072
 C         2.2306498787        1.3425177599      -15.6635295036
 O         1.8322174862        2.2586129968      -16.3058551078
 C         2.0691414103        1.3498305093      -14.0772234707
 C         0.5252134055        1.6656711272      -13.7033577482
 O        -0.0356849423        2.7549047099      -13.9509991796
 C        -0.2878743247        0.6249962035      -12.8984133471
 C        -1.7513490503        0.5187442538      -13.4122148256
 C        -2.8245853311        0.1193186622      -12.2882883065
 O        -3.1399946775        0.9534056259      -11.4329754025
 C        -3.5630905205       -1.2722779069      -12.3038568936
 C        -3.7372310640       -1.5706604072      -10.7770638605
 O        -2.7748418128       -1.8456239672      -10.0517912517
 C        -5.1350794648       -1.4955085537      -10.2419943273
 C        -5.1173456866       -1.2867227224       -8.7110029462
 C        -5.8781055848       -2.2909376246       -8.0384417379
 O        -6.5970993154       -3.1432648598       -8.5513509475
 C        -5.8856748077       -2.1330273383       -6.4178308918
 C        -5.0841115185       -3.4413752120       -5.8810151649
 O        -5.2065645272       -4.5591439660       -6.3699743344
 C        -3.9828147793       -3.1511579207       -4.8361353019
 C        -3.5009439017       -4.3576316969       -4.0297140875
 C        -4.7506870795       -4.7929376212       -3.1839086564
 O        -5.8324640045       -4.2982483048       -3.1469804872
 C        -4.5038103221       -5.9894577539       -2.1737166756
 C        -5.0328957642       -7.2930527865       -2.9674122294
 O        -4.3213569233       -8.0620997019       -3.5236386360
 C        -6.7228594081       -7.3515680336       -3.2119315703
 C        -6.8887997923       -8.2438902525       -4.4175837724
 C        -6.8120346724       -7.5971089248       -5.7790864065
 O        -7.4617251854       -6.5725169139       -6.0034604425
 C        -5.9023308046       -8.2583392801       -6.8832835024
 C        -6.4111287032       -7.9831731771       -8.3237954658
 O        -5.8135499860       -7.1214083832       -8.9966428119
 C        -7.6631054455       -8.6345438234       -8.8595073581
 C        -8.0866132805       -8.0725642707      -10.2274238325
 C        -8.6127421658       -6.6398495713      -10.0432933647
 O        -7.7904865105       -5.7323167683      -10.2011712522
 C       -10.1485993066       -6.4644394670       -9.8442945331
 C       -10.3753563134       -6.2472009211       -8.2699089362
 O        -9.5946285494       -5.5315743237       -7.6473274896
 C       -11.5460126923       -6.9412351235       -7.5715530895
 C       -10.9027260747       -7.7430363953       -6.4342584755
 C       -12.0678649734       -8.2417301891       -5.4601634993
 O       -13.0833052054       -7.6394333253       -5.5003230444
 C       -11.8267051526       -9.4278912120       -4.4356502722
 C       -11.1736261531       -8.6733482846       -3.2869592581
 O       -10.0734030887       -8.1407033839       -3.5380982888
 C       -11.9917499304       -8.3636428257       -2.0631958100
 C       -11.0160305058       -7.8559158156       -0.9998327555
 C       -11.9640186138       -7.1742135291        0.1793396892
 O       -12.9077668396       -6.4973831322       -0.1195888027
 C       -11.4868133274       -7.3119180488        1.6979291462
 C       -11.3663880543       -8.9003365560        2.1364913488
 O       -11.9510382776       -9.8322133917        1.6696021832
 C       -10.5017614985       -9.2051647366        3.3603247064
 C       -10.1295347631       -6.6307858326        1.8620059359
 C       -12.5777924913       -6.7909212552        2.8188986864
 C       -13.1637403630      -10.0886116369       -4.1719449547
 C       -10.7555916782      -10.4386665036       -4.8770003382
 C       -10.6337654747       -5.0567118665      -10.3816921065
 C       -11.0681231604       -7.6374748580      -10.5329857151
 C        -4.4481701519       -7.5901783019       -6.6870222054
 C        -5.8352435630       -9.7550979864       -6.6529744851
 C        -3.1055142911       -6.2884912226       -1.7249659988
 C        -5.4451672597       -5.8514232600       -0.9629685625
 C        -5.3960510823       -0.7712746809       -5.8346708143
 C        -7.3268537786       -2.1998865467       -5.9407806410
 C        -4.8154423969       -1.1567446571      -13.2252068616
 C        -2.6485210450       -2.3211417421      -12.8721575695
 C         2.6322026620        0.0433575101      -13.5236304933
 C         2.8700770884        2.5634489224      -13.5966229952
 C         7.1509755095        0.6255642949      -19.0563219430
 C         7.5342157767       -0.4434815481      -16.8115802260
 C         8.8812629941        6.6947877151      -15.3312262352
 C         7.3855629616        5.4227719286      -13.7641244920
 C         3.4343237075        5.5671954129      -18.1249993028
 C         3.6008517573        8.0023588309      -18.3760604239
 C        -3.6652972037        6.8365869059      -15.9247205073
 C        -2.5540539932        8.4617106656      -14.1125843603
 H        -0.3524458743        5.3423078539      -13.0500818068
 H        -0.7231644484        7.2124699139      -12.9971312266
 H         0.5011886618        6.6239017213      -13.9920421542
 H        -1.6374607838        9.0007936970      -18.2981784071
 H        -1.3996479735        7.1835205521      -18.2506881075
 H         0.7960993498        9.0477939633      -17.4784631995
 H         0.6131702970        8.2920577664      -19.1448637978
 H         3.3356054031        8.6459119883      -14.6686518334
 H         4.4458195315        8.6264955334      -16.0680942812
 H         4.8493663936        6.2968474905      -14.2008780162
 H         5.5963664074        7.7593830567      -13.7281401657
 H         8.8956034452        4.4695623864      -16.7426017242
 H         8.2153041455        5.5309269273      -17.9472364055
 H         8.1543408977        3.1789490365      -18.9445964180
 H         6.5411968653        3.4904563773      -18.3555992033
 H         4.7425733135        0.6407568581      -15.2031627340
 H         4.6945058452       -0.8946917495      -16.1120779309
 H         2.6307014010       -0.7530002373      -15.8931776448
 H         2.5971893079        0.1404308204      -17.3225086107
 H        -0.2019493992        0.8787403803      -11.8504362247
 H         0.1270025397       -0.4153688249      -12.7737823311
 H        -1.8173805185       -0.1028629350      -14.2433014525
 H        -2.1132696995        1.6130300179      -13.5730657460
 H        -5.4817526776       -2.4409705075      -10.6265145405
 H        -5.7598343853       -0.7683779502      -10.8163444521
 H        -5.3624483325       -0.3066128293       -8.3634428736
 H        -4.1463745521       -1.4052896243       -8.5047351151
 H        -4.3246834695       -2.3861044228       -4.1258107615
 H        -3.1616577280       -2.6528433748       -5.1997336383
 H        -2.5694910183       -4.2076250842       -3.4878571912
 H        -3.3031287493       -5.3515794866       -4.5524169829
 H        -7.1202698331       -6.4096587428       -3.4282221636
 H        -7.0033293729       -7.7300650805       -2.3019362658
 H        -7.9029988938       -8.7977125192       -4.2286099567
 H        -6.1403328630       -8.9603227149       -4.3596986877
 H        -8.5060505869       -8.3536804439       -8.1057229864
 H        -7.5215451840       -9.7288476333       -8.9442850429
 H        -8.7927182526       -8.8518830100      -10.5958543830
 H        -7.2024335101       -8.1063890473      -10.9312545084
 H       -12.2653844126       -7.4901062402       -8.1592064891
 H       -12.1428612502       -6.0653483211       -7.2024273577
 H       -10.2802813071       -7.0102883598       -5.8936585947
 H       -10.2494953854       -8.5045714478       -6.8420850578
 H       -12.8231830472       -9.1300985277       -1.8979405960
 H       -12.6362863664       -7.5191838749       -2.2984244643
 H       -10.4531720985       -7.1180098921       -1.5403044808
 H       -10.3365726598       -8.6376101527       -0.6400060830
 H        -9.5446443521       -9.5837614084        2.8820655863
 H       -10.9592302763      -10.0433790367        3.8597585918
 H       -10.1683941390       -8.3552343888        3.9993155329
 H       -10.0738665019       -5.7768033879        1.1770224067
 H        -9.3047978104       -7.3537947295        1.5259664894
 H       -10.0561491014       -6.2101017084        2.8521054301
 H       -11.9427696316       -6.7349677986        3.6642073290
 H       -13.3348029675       -7.4829083808        3.2021150973
 H       -12.8808581208       -5.8089597322        2.5119883788
 H       -13.0170312344      -10.6351373214       -3.2688587315
 H       -13.3674133643      -10.8356449568       -5.0066285568
 H       -14.0867918345       -9.5074214408       -4.0462870421
 H        -9.8223790356       -9.9668936383       -5.1840118961
 H       -11.0835660022      -10.9728490842       -5.8187128457
 H       -10.6323484162      -11.2076863150       -4.0866178386
 H       -10.7790672494       -4.3490635223       -9.5939320484
 H       -11.5995335955       -5.0577935669      -10.8394368191
 H        -9.9765169028       -4.6679294356      -11.1590791063
 H       -10.7258122947       -7.5944139826      -11.5470270090
 H       -12.0978362376       -7.2672473256      -10.3504913202
 H       -10.9383423115       -8.5211369288      -10.0232402205
 H        -4.0931651130       -7.1539582793       -7.5747891035
 H        -3.8392964779       -8.2686999167       -6.0875532649
 H        -4.5172439370       -6.7683629304       -6.0549608031
 H        -5.4940651242       -9.9899622194       -5.6551587656
 H        -5.0463080782      -10.2171590666       -7.3693049752
 H        -6.7580990861      -10.2455304188       -6.9046156141
 H        -2.4819255269       -5.4779266109       -1.3640925637
 H        -2.5564304523       -6.6421279581       -2.6378486821
 H        -3.0020723539       -7.0851095754       -1.0163124654
 H        -5.4305456260       -4.9220837175       -0.4889510062
 H        -5.2173263771       -6.6450626123       -0.2415774915
 H        -6.4026081333       -6.1429764624       -1.3925204941
 H        -5.7465956425       -0.7200883179       -4.8019407697
 H        -5.8287427542        0.0043635377       -6.4483233382
 H        -4.3247231725       -0.7315918679       -5.7605135734
 H        -7.8786720173       -3.0480660642       -6.3500206972
 H        -7.9035593578       -1.3787797503       -6.3039715444
 H        -7.3002621598       -2.3356193507       -4.8234429049
 H        -5.3143161665       -2.1626722258      -13.0963354901
 H        -4.5957803500       -0.9834548927      -14.2722353746
 H        -5.4795048496       -0.3672184295      -12.9287989243
 H        -3.3458567345       -3.0586072114      -13.2345609390
 H        -2.0277007172       -2.7325070223      -12.0742089361
 H        -1.9203610873       -1.9988057090      -13.5853566722
 H         2.1304055121       -0.7752521695      -14.0319549354
 H         2.5436240011        0.0326415323      -12.4120500230
 H         3.6749811570        0.0388313765      -13.6524218139
 H         2.8558104194        2.6039186369      -12.5361000782
 H         2.4869420774        3.5275293151      -13.9407820036
 H         3.9385630769        2.5146977127      -13.9768586980
 H         6.5235205883        1.3016068960      -19.7705707857
 H         7.1587657380       -0.4089298151      -19.3362891619
 H         8.1338265488        0.9786105748      -19.2116383030
 H         8.5760340920       -0.3076844332      -16.9073800995
 H         7.2724494148       -1.3778552653      -17.3551602000
 H         7.0648222759       -0.4982603606      -15.8133976064
 H         9.6453161515        5.9883215950      -15.3800108936
 H         9.0423631498        7.2350199550      -14.4059118650
 H         8.9213950764        7.2623733004      -16.3030330389
 H         6.5189537386        4.8028558294      -13.6537407539
 H         7.3034980718        6.1275644519      -13.0466746925
 H         8.3061398337        4.8748964151      -13.7086118762
 H         2.9362856982        5.3945014661      -19.1296775086
 H         3.1707110079        4.7583654994      -17.5599905612
 H         4.4730322339        5.4838708769      -18.3544208499
 H         3.1163001792        8.9561332976      -18.4818143325
 H         3.6360693242        7.6849465876      -19.4050788672
 H         4.6153151198        8.0712391996      -18.2304675669
 H        -3.4849276994        6.3971647110      -16.8883461547
 H        -4.5078059152        7.5808865126      -15.9292640086
 H        -4.0764809449        6.0995756900      -15.2833242476
 H        -1.7162241631        9.0780157581      -13.7066199321
 H        -2.9491420975        7.9965971342      -13.1779855299
 H        -3.4528067198        9.0703816783      -14.4128796012
 Na        1.1347423801        4.2511448309      -15.9074115846
 Na       -7.3506619041       -5.0869248904       -7.8687158374
