232

 C        -0.5521453123        6.2697795322      -13.4072775456
 C        -1.2419833098        6.1421608279      -14.7597385516
 O        -1.1672269836        5.1869826308      -15.4940193156
 C        -2.1551598320        7.4015532003      -15.2318795142
 C        -1.2000825005        8.1361998397      -16.1867435401
 O        -0.4670993780        8.9230646616      -15.5988435097
 C        -1.0183111442        7.9723450319      -17.7012173726
 C         0.5447098175        8.0794931405      -18.0352734513
 C         1.3420108332        6.8101818046      -17.7866808987
 O         0.7065722322        5.7575281767      -17.7225360493
 C         2.8282419407        6.8320533121      -17.5830750364
 C         3.0346839442        6.8870584258      -16.0213160960
 O         2.3961949188        6.1736309085      -15.2792519334
 C         3.9946385620        7.9860836894      -15.4247119088
 C         5.1558031154        7.3308074533      -14.6810281806
 C         6.4457827741        7.1868517961      -15.4452219128
 O         6.6844228848        7.8511433510      -16.4203676682
 C         7.4812717472        6.0117943306      -15.1493776952
 C         7.1048325681        4.8841286188      -16.1499206443
 O         6.0024517331        4.3699304074      -15.9518807833
 C         7.9934373582        4.6061649999      -17.3791700479
 C         7.4754750371        3.2968073171      -18.0322621064
 C         7.4309641273        2.1679969775      -17.0434252400
 O         7.7729666008        2.2870794861      -15.8651460701
 C         6.8642173659        0.8703252513      -17.5875681309
 C         5.3251910266        0.9770228080      -17.3936294837
 O         4.5656924709        1.5367318620      -18.1916986434
 C         4.5456738851        0.2926385310      -16.2502555193
 C         2.9546261949        0.2583331047      -16.5305848302
 C         2.1760706332        1.3549235668      -15.7058433819
 O         1.7447022356        2.2610545236      -16.3901358225
 C         2.0017324104        1.3776117011      -14.0795992686
 C         0.4825065155        1.6697668931      -13.7049473111
 O        -0.0212138092        2.7128973634      -14.1220953761
 C        -0.3350754761        0.6600993587      -12.8633910068
 C        -1.7448075133        0.5764409742      -13.5120157047
 C        -2.7676904803        0.1275111532      -12.3115112731
 O        -2.9734978572        0.8804739688      -11.3540671588
 C        -3.4274531331       -1.3226432666      -12.3204081406
 C        -3.6480060881       -1.5541309524      -10.8227823361
 O        -2.7289726737       -1.7674588861      -10.0617532684
 C        -5.0654014213       -1.4733541808      -10.2252448085
 C        -5.0989190798       -1.2102218320       -8.6498669542
 C        -5.8503810168       -2.3043264976       -7.9198565822
 O        -6.4981725255       -3.0858830862       -8.5565676942
 C        -5.9440881214       -2.1679472606       -6.3336299541
 C        -5.1520894430       -3.3712786500       -5.8210315690
 O        -5.4454981758       -4.4655924404       -6.2971433955
 C        -3.9535913955       -3.1619178972       -4.9125684152
 C        -3.6535380694       -4.4488505736       -4.0724219596
 C        -4.7460652356       -4.8304934631       -3.0796615191
 O        -5.8152904373       -4.2867187385       -3.2240096598
 C        -4.5849218431       -6.0819149918       -2.1394374285
 C        -5.1035491690       -7.2054361120       -3.0135481213
 O        -4.3719155052       -8.0627762830       -3.4392010094
 C        -6.6210188700       -7.3730581113       -3.1901198384
 C        -6.9465281017       -8.2868427094       -4.3864089713
 C        -6.8569106473       -7.6056804618       -5.7511154344
 O        -7.4990243428       -6.5585936480       -5.9469584975
 C        -5.9312161870       -8.2975059276       -6.8217417866
 C        -6.4291567543       -7.9482364603       -8.3032855409
 O        -5.8529277912       -7.2920551955       -9.1432100574
 C        -7.7434344758       -8.7130015945       -8.7062272236
 C        -8.1265825087       -8.1697139286      -10.1549508144
 C        -8.6192411327       -6.6802955266      -10.1047509702
 O        -7.8502395034       -5.7709911730      -10.1091054517
 C       -10.1439751159       -6.3782842329       -9.8964543975
 C       -10.3871074349       -6.2214993777       -8.3667225582
 O        -9.6560723096       -5.5652193423       -7.7224261002
 C       -11.5352334337       -6.8492011010       -7.5577731201
 C       -10.9094875156       -7.6812573012       -6.3999935820
 C       -12.0715847047       -8.2400108608       -5.6211721466
 O       -13.1188240863       -7.6293125441       -5.6104289405
 C       -11.8317710218       -9.3920597276       -4.5650811295
 C       -11.1985836483       -8.5009895622       -3.3670035612
 O       -10.0354927006       -8.1673132078       -3.3957477779
 C       -11.9695673944       -8.3313575816       -2.0822919057
 C       -11.0928453405       -8.0107118669       -0.8266875833
 C       -11.9170512910       -7.3202414651        0.2374249389
 O       -12.7768100630       -6.5909828601       -0.2641961507
 C       -11.4119883391       -7.3354447494        1.7453276247
 C       -11.3260204454       -8.8083331817        2.2143455380
 O       -12.1663314618       -9.6005261577        1.7622016724
 C       -10.2278107136       -9.1777458044        3.3299549377
 C       -10.0898237653       -6.5482043690        1.8134972563
 C       -12.3572294282       -6.6040064829        2.6815215951
 C       -13.2017704451      -10.0440032157       -4.2425623305
 C       -10.7597592478      -10.4745119482       -4.8472995699
 C       -10.5398774873       -5.0171290111      -10.5595438686
 C       -11.0191331572       -7.4958393805      -10.4595496966
 C        -4.4724071777       -7.7112505597       -6.6279831078
 C        -5.7118602616       -9.8671395971       -6.6539101868
 C        -3.0997305533       -6.2004248985       -1.7420594064
 C        -5.4646370654       -5.6711391148       -0.8717038103
 C        -5.3736541760       -0.8430428359       -5.9449625562
 C        -7.4736295753       -2.2827440687       -5.8592489427
 C        -4.8195048679       -1.1866038335      -13.1140562901
 C        -2.5676187507       -2.4933237658      -12.9576339458
 C         2.5161668637        0.0868395415      -13.4358780598
 C         2.9545830211        2.6150211116      -13.6757303254
 C         7.0559349527        0.7205745498      -19.0886722786
 C         7.4635769503       -0.2999590828      -16.7928550184
 C         8.8797029332        6.6348150272      -15.3445874099
 C         7.2918817945        5.4553174592      -13.6837970421
 C         3.5455779381        5.5400160125      -18.0170919553
 C         3.5608448769        8.0071901476      -18.3250531485
 C        -3.4276606123        6.9355406270      -15.8321899325
 C        -2.5860944630        8.3490233466      -14.1216668749
 H        -0.5351917100        5.1932158373      -13.1465736673
 H        -1.0457463506        6.9622131283      -12.7147505400
 H         0.5101282594        6.6677131172      -13.4954873659
 H        -1.5518515056        8.7722849551      -18.2566871757
 H        -1.3777831396        7.0082069572      -18.0638336642
 H         0.8551243631        8.9021763285      -17.3553969909
 H         0.7482644201        8.3433084361      -19.0907637889
 H         3.2788687032        8.4733032554      -14.7371125627
 H         4.4298701641        8.8044940408      -16.0684936428
 H         4.8097130971        6.3867758786      -14.2468593865
 H         5.4509927608        7.8865193928      -13.7642940848
 H         9.0402261712        4.6201927360      -17.1444915772
 H         7.7992972315        5.4386853763      -18.0555679299
 H         8.2393534573        3.0782054572      -18.8275957622
 H         6.5126249825        3.5592926806      -18.6111891460
 H         4.7669903139        0.7373164160      -15.2858992033
 H         4.8461306804       -0.7732464003      -16.1459515182
 H         2.5388529346       -0.7423662987      -16.4577549932
 H         2.7192560897        0.5702928370      -17.6093555444
 H        -0.2651086907        0.8768684834      -11.7863892424
 H         0.0740253369       -0.3623810158      -12.7919498041
 H        -1.7080958759       -0.2065375468      -14.2970540460
 H        -2.0545870470        1.6192959888      -13.7695217389
 H        -5.7125982018       -2.2312374651      -10.6348489697
 H        -5.4622253088       -0.5953259409      -10.6809003764
 H        -5.6120432098       -0.2607217666       -8.4391827634
 H        -3.9906530526       -1.0355960478       -8.4199766385
 H        -3.8629575344       -2.2869203109       -4.3365474074
 H        -3.0332216745       -3.0208937670       -5.4823244015
 H        -2.6928191198       -4.2175913587       -3.5365349023
 H        -3.4792618476       -5.3671411476       -4.5260005416
 H        -6.9928377397       -6.3862235267       -3.3218386456
 H        -6.7953452589       -7.7681636828       -2.1961810685
 H        -8.0570496669       -8.5786681013       -4.1456637184
 H        -6.3597642371       -9.2058781010       -4.3290034346
 H        -8.4752866886       -8.6130324247       -7.9246740565
 H        -7.4610188259       -9.8068207801       -8.9033163220
 H        -8.8061871990       -8.9075082948      -10.5826412511
 H        -7.2109456540       -8.3047718886      -10.7116626977
 H       -12.2092764133       -7.5583913752       -8.0416380392
 H       -12.1431435582       -5.9989571558       -7.2893927564
 H       -10.2201283787       -7.1825058521       -5.7072028455
 H       -10.3926371218       -8.5133982056       -6.9080150651
 H       -12.5394211318       -9.2497059417       -1.9555170458
 H       -12.8764828742       -7.6313634809       -2.2255495516
 H       -10.2083894848       -7.4291848279       -1.0423565355
 H       -10.7894226773       -8.9486795082       -0.4343857277
 H        -9.2201636359       -9.2970436111        2.8607943704
 H       -10.5185501082      -10.1738435876        3.8063195610
 H       -10.1159980765       -8.4077209549        4.0444417362
 H       -10.3722192432       -5.6352665059        1.4091665197
 H        -9.2814466887       -6.8952759158        1.1417900817
 H        -9.8038778420       -6.3884723616        2.7983224616
 H       -11.8244651757       -6.5894562038        3.6891565488
 H       -13.3053610156       -7.0761281277        2.9113559731
 H       -12.3576636695       -5.6459363237        2.2395077293
 H       -13.1216982748      -10.6972113537       -3.4387105892
 H       -13.4972006931      -10.5975328343       -5.1304657227
 H       -14.0462030060       -9.3698105316       -3.9731126099
 H        -9.7117721331      -10.0710369605       -4.8133239563
 H       -10.8411306463      -10.9031079345       -5.8968728619
 H       -10.8868800163      -11.2397497195       -4.0974012710
 H       -10.2069476536       -4.1609550871       -9.9064488246
 H       -11.6145308832       -4.8089220977      -10.6706145223
 H       -10.1345169373       -5.0169231533      -11.5668978491
 H       -10.7492115585       -7.4975595488      -11.4962409172
 H       -12.0604194694       -7.1827406335      -10.1676136751
 H       -10.7376065946       -8.4085266744       -9.8213273602
 H        -4.2562734763       -7.1651011702       -7.5039996959
 H        -3.8306422828       -8.4788919162       -6.2260638695
 H        -4.4206779558       -6.9620390621       -5.8225622819
 H        -5.1197683925      -10.0485781730       -5.7447693936
 H        -5.1649414404      -10.2680952461       -7.4179847846
 H        -6.7253583191      -10.3898433287       -6.6302249045
 H        -2.5803631949       -5.2626774998       -1.4863389989
 H        -2.5193474382       -6.5427986847       -2.5922022690
 H        -2.8954078189       -6.9576111026       -0.9966546913
 H        -4.9730474897       -4.7998355890       -0.4571043494
 H        -5.4089078283       -6.4540165398       -0.0757857246
 H        -6.4608297264       -5.5240424969       -1.1794718184
 H        -5.6346402575       -0.6453970806       -4.9041705572
 H        -5.8882081886       -0.1536205026       -6.6238628651
 H        -4.2734091210       -0.8168570008       -5.9998927617
 H        -7.9752353283       -3.1948812610       -6.2700185617
 H        -8.0868452338       -1.4784296091       -6.2757489321
 H        -7.4955343526       -2.3689451388       -4.7942980562
 H        -5.1370708487       -2.2191141676      -13.3358372189
 H        -4.8028110945       -0.5354996794      -14.0081138034
 H        -5.6351781890       -0.6908811968      -12.4951293477
 H        -3.3081907179       -3.2753079420      -13.0958040257
 H        -1.8500560166       -2.8058752541      -12.2040939866
 H        -2.0150104141       -2.2749773754      -13.8637347924
 H         2.0589831003       -0.7346142367      -13.8486345438
 H         2.3482519675        0.1934916990      -12.3653737846
 H         3.6626905099        0.0645098072      -13.5649115308
 H         3.0882599615        2.5831209565      -12.6140242755
 H         2.6228005538        3.6336344513      -13.9103283947
 H         3.9099224109        2.4984712005      -14.1317702116
 H         6.2842514566        1.2702459951      -19.6243205176
 H         7.0493146230       -0.3810471696      -19.2889792978
 H         8.0019423387        1.1258543344      -19.5070137477
 H         8.4184734711       -0.3524356925      -17.1994808043
 H         6.9530664182       -1.2872480067      -17.0402683764
 H         7.4042699562       -0.0841249769      -15.7463682656
 H         9.5940004962        5.7915939005      -15.3556245799
 H         9.1687060469        7.1730411489      -14.4734228698
 H         8.9391721784        7.1196627383      -16.3213162678
 H         6.4310163163        4.7106899607      -13.7039652577
 H         6.9470509314        6.2507724709      -13.0347056696
 H         8.1552488717        5.0268537759      -13.3332324980
 H         3.6302200611        5.3098202553      -19.0799218720
 H         3.1560025397        4.6125877921      -17.5665622174
 H         4.5808277507        5.6556966158      -17.6896793259
 H         3.1136081010        8.9225788062      -18.4281198441
 H         3.6593134745        7.7502991695      -19.3851815317
 H         4.6512019272        7.9573871324      -18.1535962063
 H        -3.2788413000        6.2819055144      -16.7132386850
 H        -4.2000064741        7.7379226949      -15.9708815304
 H        -3.9067402775        6.2812280969      -15.0602675222
 H        -1.6087362597        8.7414145676      -13.6619977419
 H        -3.1265833756        8.0044385052      -13.2597390222
 H        -3.2073358605        9.1567878604      -14.5054363307
 Na        1.0081331419        4.3254748884      -15.8511326843
 Na       -7.4368549017       -5.0734564737       -7.8906321223
