232

 C        -0.7066538007        5.9248148121      -13.2485663936
 C        -1.2998750131        6.1762963039      -14.5787888612
 O        -1.0444193944        5.3976156267      -15.5594824572
 C        -2.0233981699        7.4013384997      -15.0774245330
 C        -0.9485376990        8.2156315191      -15.9249210469
 O        -0.2302401694        9.0665282628      -15.4780766633
 C        -0.8784586268        7.7066543038      -17.3549573478
 C         0.4828225427        7.8351748416      -18.0735251228
 C         1.3226063560        6.6182147458      -17.8483822650
 O         0.8435560160        5.4924564262      -17.9578267930
 C         2.8826549765        6.7500766278      -17.5426940645
 C         3.0397699522        6.9639654802      -16.0024561218
 O         2.3337881957        6.2055745675      -15.2709688744
 C         4.0179938995        7.9917932200      -15.4319679413
 C         5.2070393995        7.3438616637      -14.6882759715
 C         6.4465038220        7.0713245918      -15.5277132965
 O         6.5636860526        7.6188491928      -16.6076425229
 C         7.4295726123        5.9758197434      -15.0211538987
 C         6.9638425602        4.9343804782      -16.0207838546
 O         5.9030874391        4.3656593324      -15.8625184049
 C         7.8181337540        4.8038643044      -17.3161886620
 C         7.4574923929        3.4961373938      -18.1596083728
 C         7.2542889932        2.2958008132      -17.1804548411
 O         7.6145194998        2.3279867590      -16.0224419605
 C         6.8340647543        0.8748834900      -17.6777936579
 C         5.1624914973        1.0825576274      -17.4684754740
 O         4.5835600770        1.7488772307      -18.2862974049
 C         4.4452787245        0.4350271732      -16.3352440247
 C         2.9643146301        0.2484410226      -16.4445444758
 C         2.1430315090        1.3676485757      -15.8062413896
 O         1.6403805742        2.2304929292      -16.4740528668
 C         2.0142554048        1.4278547368      -14.1972591499
 C         0.5064316799        1.7368510198      -14.0092674434
 O         0.0601890791        2.7892134808      -14.4699349147
 C        -0.3403930951        0.7963560022      -13.1231040249
 C        -1.7165581751        0.5114503261      -13.6319456268
 C        -2.5701658603        0.0926614253      -12.3701105435
 O        -2.6800840964        0.7540660056      -11.3439944011
 C        -3.3283925438       -1.2664148681      -12.3660754017
 C        -3.5543381135       -1.5354060749      -10.7273016956
 O        -2.6258038595       -1.8696092064       -9.9933371825
 C        -4.8954699955       -1.2385159681      -10.1600385657
 C        -4.9965397319       -1.1730497406       -8.6732048487
 C        -5.8428810492       -2.1526178246       -7.8815452838
 O        -6.4252616245       -3.0021141842       -8.5331499055
 C        -6.0045146035       -2.1300594557       -6.3290496278
 C        -5.3295619864       -3.4184544784       -5.8839275314
 O        -5.8038865888       -4.5223381264       -6.0269669085
 C        -4.0467451154       -3.3393009487       -5.1603013989
 C        -3.7134392981       -4.5254178223       -4.2347682350
 C        -4.8479481425       -4.7774211405       -3.1965329675
 O        -5.8510714333       -4.1458098649       -3.3082132265
 C        -4.6342537419       -5.9790164495       -2.0691922452
 C        -5.1626968614       -7.1147005992       -2.8939876551
 O        -4.4094513143       -7.9625560385       -3.2499102550
 C        -6.7172193977       -7.3142522369       -3.1899019880
 C        -7.0271790952       -8.3618580322       -4.2769234332
 C        -6.8155591348       -7.7620317004       -5.6609835454
 O        -7.4298791508       -6.7738547047       -6.0370820143
 C        -5.8966400001       -8.4673008766       -6.7519281687
 C        -6.4639194310       -8.0769136791       -8.2015311520
 O        -5.7233797848       -7.4700671096       -8.9851355100
 C        -7.8173564593       -8.6480913417       -8.6178937323
 C        -8.3041245297       -8.2724259447      -10.0090994257
 C        -8.7002424921       -6.8106208430      -10.0378141509
 O        -7.8186503866       -5.9526055367       -9.9997380392
 C       -10.1528638241       -6.3514387602       -9.9819106005
 C       -10.4106309414       -6.0908233203       -8.4316868954
 O        -9.6922780112       -5.2612901612       -7.8467014977
 C       -11.5199403130       -6.7495194218       -7.6752157662
 C       -10.9712499102       -7.6879396599       -6.5685137957
 C       -12.1235611983       -8.1690120013       -5.5828779605
 O       -13.2339712281       -7.8339806339       -5.8283968618
 C       -11.8694621265       -9.3129902340       -4.5252438805
 C       -11.1687402707       -8.6500326412       -3.1988504512
 O       -10.0467684425       -8.1656304579       -3.3105140039
 C       -11.9737769858       -8.4949045151       -1.9474519493
 C       -11.2940024104       -8.4393044254       -0.6003252857
 C       -11.7788703352       -7.2751228479        0.2330865367
 O       -12.7534754293       -6.6745069917       -0.0807219674
 C       -11.2286846582       -7.1035667988        1.7223362004
 C       -11.2260458451       -8.5681000976        2.3807052068
 O       -12.2245776744       -9.1960440939        2.1907025702
 C       -10.0079877365       -9.1288698751        3.0054062521
 C        -9.7304878594       -6.4987728694        1.5971471659
 C       -12.2407698881       -6.1960035115        2.4584870867
 C       -13.2375067157       -9.9346020029       -4.1677444924
 C       -10.8898505947      -10.3027155018       -5.2065544552
 C       -10.3074346789       -5.0734836211      -10.8526811479
 C       -11.2127611804       -7.3506334708      -10.5603030126
 C        -4.5134556508       -7.6511492701       -6.6146912796
 C        -5.8404883759      -10.0477001299       -6.6173283759
 C        -3.2167360531       -6.1315383067       -1.7543349587
 C        -5.4151509825       -5.5650934308       -0.8244965019
 C        -5.5592333546       -0.8455166653       -5.6260387045
 C        -7.4639728396       -2.2879196924       -5.8562018530
 C        -4.6201843791       -1.2129433980      -13.2937613478
 C        -2.4584348871       -2.4391275908      -12.8963500743
 C         2.5682432332        0.1225943223      -13.5352347102
 C         2.8755296566        2.6171924435      -13.7197368972
 C         7.0461264779        0.5829178294      -19.1297463875
 C         7.3981278513       -0.3193953380      -16.7898197157
 C         8.9020591369        6.3715429967      -15.1418059741
 C         7.2450155913        5.6271538989      -13.5378189688
 C         3.5648140244        5.4095034167      -17.8284956673
 C         3.4083075179        7.8800469606      -18.4206661165
 C        -3.1753855241        6.7739760527      -16.1087506833
 C        -2.5518363512        8.1841740342      -13.8817176985
 H        -0.0405002841        5.0838797159      -13.3245389113
 H        -1.4764679795        5.8139568015      -12.4698989944
 H        -0.2099766298        6.8255514498      -13.0296527276
 H        -1.4872720491        8.3247338713      -18.0118638502
 H        -1.2225092909        6.7061508630      -17.4890770451
 H         0.8917569981        8.8090836060      -17.8949866539
 H         0.2428536154        7.7713527785      -19.1344401312
 H         3.4800964243        8.6676710532      -14.7852332903
 H         4.4712739339        8.5616532540      -16.1909015283
 H         4.8809413031        6.3572664448      -14.3065167892
 H         5.3899379433        7.8501528045      -13.7335897922
 H         8.8956798207        4.8140234034      -16.9897543002
 H         7.7104033371        5.7098978942      -17.9548868265
 H         8.1515108677        3.3687592444      -18.9859466974
 H         6.5451138205        3.7395295300      -18.6175736692
 H         4.8343796505        0.9912023123      -15.4489116169
 H         4.8977725218       -0.5347216373      -16.1429968663
 H         2.6635623275       -0.6321206185      -15.8325277322
 H         2.6431464772       -0.0318486891      -17.4276443670
 H        -0.4333839026        1.3381274170      -12.1700220481
 H         0.1488739845       -0.1066127990      -12.7689474689
 H        -1.7131094764       -0.2884562094      -14.3237025406
 H        -2.0183201231        1.5409891630      -13.8609205093
 H        -5.5920302495       -2.0950810058      -10.4142346252
 H        -5.3833578943       -0.4497363977      -10.7954766593
 H        -5.4241500702       -0.1252040017       -8.4128820307
 H        -3.9348153080       -1.1297378089       -8.3072264705
 H        -3.8981821371       -2.3224520928       -4.6173125374
 H        -3.1561964224       -3.2616307312       -5.8325968631
 H        -2.7572963422       -4.5062732838       -3.7830740133
 H        -3.7901864406       -5.4999574338       -4.8472505527
 H        -7.0603870537       -6.2398339320       -3.3487993517
 H        -7.0961368311       -7.8232620342       -2.2421750463
 H        -8.0543969978       -8.5539814542       -4.1007446648
 H        -6.5474600845       -9.2799405907       -4.0084547928
 H        -8.5135852633       -8.3655596583       -7.8124016674
 H        -7.6658460961       -9.6646933494       -8.5498007466
 H        -9.0474443324       -8.9743410416      -10.3713887684
 H        -7.4277492787       -8.4498842879      -10.6401226999
 H       -12.0738607853       -7.3619559842       -8.3731890999
 H       -12.2947695846       -6.0918720999       -7.1949628061
 H       -10.0689369116       -7.3076031539       -6.0648838201
 H       -10.6676541867       -8.6323963638       -7.0544470959
 H       -12.7232727215       -9.3219907442       -1.9124061714
 H       -12.6107583529       -7.6620609236       -2.1162170119
 H       -10.1891957646       -8.4202006525       -0.5473275376
 H       -11.6245395035       -9.3747119881       -0.0639899990
 H        -9.1434327416       -8.7312736715        2.5336256821
 H       -10.0289195727      -10.1511072330        2.9984628505
 H       -10.0083873823       -8.7807639306        4.0675256070
 H        -9.7101428111       -5.3933566448        1.6001430160
 H        -9.2145896109       -6.6132523590        0.6142031188
 H        -9.0837507303       -6.9392771851        2.3680277748
 H       -12.2939761452       -6.2312773117        3.5108164961
 H       -13.1600738498       -6.6802234513        2.0676759280
 H       -12.1287954747       -5.1827260788        1.9915130270
 H       -13.2642372705      -10.7727591722       -3.4464284921
 H       -13.6764542963      -10.3051693361       -5.1122230063
 H       -13.8413390029       -9.2069033324       -3.6915496206
 H        -9.9027012539       -9.8559070643       -5.2273780508
 H       -11.2104126826      -10.4434410038       -6.2217666583
 H       -10.7435843348      -11.2403370342       -4.6187726252
 H        -9.3606496915       -4.6319901556      -11.1104086887
 H       -10.7718848037       -4.2592478226      -10.2863612043
 H       -10.9905141549       -5.2947950733      -11.7159226866
 H       -10.7678881994       -7.5699547836      -11.5419146760
 H       -12.0883701986       -6.7420658963      -10.6269338487
 H       -11.3059003373       -8.1418245317       -9.9364231711
 H        -4.5926063995       -6.8407335179       -7.3962839217
 H        -3.6467001636       -8.3385968735       -6.4990144316
 H        -4.4482744173       -7.1205925741       -5.6493705384
 H        -5.1304221306      -10.3491750982       -5.8767552615
 H        -5.3701010307      -10.5449820599       -7.5661393962
 H        -6.7984384791      -10.3668995210       -6.4223808409
 H        -2.7556034916       -5.2048222209       -1.4743184147
 H        -2.5668517799       -6.4270973035       -2.5885504282
 H        -3.0559617970       -6.9330152923       -1.0391747092
 H        -4.7114605296       -5.2196834973       -0.0761888623
 H        -5.8203690862       -6.4438799384       -0.3614551382
 H        -6.1953137080       -4.8024381597       -1.1644193115
 H        -5.3797309232       -1.0178297851       -4.5540242092
 H        -6.3570001588       -0.1247850144       -5.7384053887
 H        -4.6415242122       -0.5394262076       -6.1033483250
 H        -7.9619617391       -3.1948190378       -6.0855917043
 H        -8.0432813897       -1.4643140500       -6.2510022902
 H        -7.4350225038       -2.2036491815       -4.7434307878
 H        -5.1977778073       -2.1425898787      -13.2705181705
 H        -4.2929497231       -0.9135097920      -14.2794560706
 H        -5.2258920659       -0.4073468955      -13.0189786751
 H        -2.7068479869       -3.4214774713      -12.4687631429
 H        -1.4210285344       -2.1667347315      -12.5862860328
 H        -2.5591473026       -2.5269153186      -14.0180785022
 H         1.9697150292       -0.7826963615      -13.9289183804
 H         2.4091141378        0.1931943956      -12.4272751379
 H         3.5431783998        0.0381352501      -13.8658347965
 H         2.8920305562        2.6953321059      -12.6361201326
 H         2.5824328236        3.5781336430      -14.1028959185
 H         3.9557323742        2.5135310866      -14.0335759995
 H         6.8444483950        1.5264450491      -19.7172250750
 H         6.4299453650       -0.2480370789      -19.3548505809
 H         8.0363584619        0.2918054535      -19.3856972748
 H         8.2870283717       -0.7411856396      -17.2886224014
 H         6.6416533783       -1.0489009522      -16.8420891384
 H         7.5876386977        0.0577742225      -15.7590472694
 H         9.5129893439        5.5393882924      -14.8370030526
 H         9.1888448664        7.2099274931      -14.4393521048
 H         9.0948243869        6.7272535310      -16.1899737668
 H         6.3118031209        5.0862272980      -13.3118417652
 H         7.3996250974        6.5025531521      -12.8496783214
 H         8.1328245464        4.8680315217      -13.4052542989
 H         4.0391589005        5.3401165576      -18.8485920023
 H         2.8577219555        4.6171332093      -17.8749208841
 H         4.3825825735        5.1289421585      -17.1479622009
 H         3.2030599123        8.8839870436      -17.9188077650
 H         2.9935347746        8.1919039526      -19.3826432789
 H         4.4189506548        7.6882466651      -18.6618209514
 H        -2.8109794688        5.8230371385      -16.5281572890
 H        -3.2403259044        7.5383685791      -16.8948873536
 H        -4.1741973511        6.5623327715      -15.7442971499
 H        -1.9303690911        8.3990008393      -13.0916538438
 H        -3.3850115112        7.6640150474      -13.4323188100
 H        -3.0274156275        9.0983187986      -14.1890728241
 Na        0.9041043455        4.3824163697      -15.6918995221
 Na       -7.1991324074       -5.1582918684       -7.7788962946
