232

 C        -0.7579119926        5.8128796530      -13.2093308061
 C        -1.2250602414        6.1641605419      -14.6373218517
 O        -1.0542992194        5.2862900810      -15.4925384075
 C        -2.0711103462        7.4687954776      -15.0397787899
 C        -0.9170253284        8.1867152839      -15.8593475147
 O        -0.1639049783        9.0256374944      -15.4048849466
 C        -0.9375256536        7.7226683774      -17.3607396643
 C         0.4873177675        7.7301846693      -18.0866283763
 C         1.3582655375        6.4833707494      -17.8164493918
 O         0.9902308323        5.3243539239      -18.0065847599
 C         2.8548819974        6.7320508463      -17.5212768343
 C         3.0536601234        6.9336333664      -15.9864905233
 O         2.3954344339        6.2752419210      -15.1371866602
 C         3.9883112487        7.9830328790      -15.4471796065
 C         5.1304990817        7.3025421091      -14.6555144050
 C         6.3947660869        7.1308200959      -15.5094477294
 O         6.5154195607        7.5445628927      -16.6456771089
 C         7.4194243113        6.0481762327      -14.9900210986
 C         6.9115835754        4.8674149425      -15.9491293916
 O         5.8012779880        4.3959239007      -15.7958676544
 C         7.6772283397        4.6844075954      -17.2535546770
 C         7.3311386506        3.4249092594      -18.1266242493
 C         7.3832331112        2.2100235500      -17.2125679782
 O         7.6919343731        2.3959640090      -16.0165610982
 C         6.6830444984        0.8569122942      -17.8056722110
 C         5.2015412784        1.1504828905      -17.5995306774
 O         4.5352155891        1.8782859129      -18.3718359407
 C         4.4483662089        0.4144033671      -16.2955010017
 C         2.9330574532        0.1313551951      -16.4440999609
 C         2.1428660683        1.3739193945      -15.8377806918
 O         1.7581651939        2.2002899320      -16.5896794676
 C         2.0476244429        1.5154678723      -14.3119697444
 C         0.5232916307        1.7756812089      -13.9493448772
 O        -0.0916789257        2.7116959588      -14.4661272411
 C        -0.3239065576        0.8555027565      -13.0885238310
 C        -1.7810693928        0.4837159739      -13.6761276398
 C        -2.5751852410        0.0839608003      -12.3998511038
 O        -2.4677126466        0.8666150382      -11.4102351165
 C        -3.2314421204       -1.2543497745      -12.3134723960
 C        -3.5955217009       -1.5384300942      -10.7787498606
 O        -2.6822582455       -1.9681448696      -10.0990559472
 C        -4.9245872698       -1.1962466294      -10.1647215434
 C        -4.9174363549       -1.1115703606       -8.5635821815
 C        -5.8088206581       -2.1566912827       -7.9273532407
 O        -6.4542433692       -2.9424318498       -8.5807820595
 C        -6.0678889091       -2.1235709784       -6.2562747387
 C        -5.3873630438       -3.4339667695       -5.7287771971
 O        -5.8636068034       -4.5077651613       -6.0494235010
 C        -3.8887245962       -3.4272836892       -5.1888793918
 C        -3.6653206037       -4.5939144645       -4.2816376298
 C        -4.8200738149       -4.6622638202       -3.2370108507
 O        -5.8684490355       -4.0692759148       -3.2243218541
 C        -4.6297601431       -5.7642977432       -2.1161589393
 C        -5.2078948100       -7.1413562057       -2.8992837014
 O        -4.5006241905       -8.0303109815       -3.2483727289
 C        -6.7778776461       -7.2683372567       -3.1380386089
 C        -6.8732475452       -8.3559490485       -4.2635208750
 C        -6.9039010904       -7.8438849443       -5.6905448186
 O        -7.5464598969       -6.8311626951       -6.0036856140
 C        -5.9148054062       -8.5145894108       -6.7616543569
 C        -6.3820806890       -8.2026895628       -8.2117118583
 O        -5.8012145922       -7.4819784541       -9.0064347127
 C        -7.8074063354       -8.7206659359       -8.4958984404
 C        -8.3067926488       -8.3935366216       -9.9020496693
 C        -8.6218323710       -6.8142685130      -10.0496815273
 O        -7.7420819555       -6.0310640768       -9.9238413984
 C       -10.1851253012       -6.2959741810      -10.0579380165
 C       -10.4651840024       -5.9708736290       -8.5206361221
 O        -9.7817474270       -5.1784070299       -7.9914711888
 C       -11.5795917793       -6.6603309927       -7.5917108729
 C       -11.0199540796       -7.6460976385       -6.5479400439
 C       -12.2101824453       -8.2474035139       -5.7121900102
 O       -13.3045974159       -7.8058092938       -5.9009970009
 C       -11.9006039638       -9.2013071785       -4.5639966346
 C       -11.2118717890       -8.6293605007       -3.2368605748
 O       -10.0433922555       -8.2459344532       -3.2448498903
 C       -12.1073616601       -8.6092295630       -1.9651894620
 C       -11.3300301540       -8.5814542793       -0.5820508946
 C       -11.8567089720       -7.3248319474        0.2687780224
 O       -12.7402595120       -6.6311806792       -0.2522443018
 C       -11.1931269078       -7.0679851576        1.6435329061
 C       -11.1490745238       -8.4471334548        2.3676321436
 O       -12.2499150794       -8.9543773652        2.4812909787
 C        -9.8176726652       -9.1557586686        3.0218049490
 C        -9.7215922410       -6.4151604596        1.6212901348
 C       -11.9627810500       -5.9941764070        2.4776728109
 C       -13.1985223462       -9.9390559620       -4.1807155378
 C       -10.9422738151      -10.3143143914       -5.2556604593
 C       -10.2448614716       -4.9557006801      -10.8644979198
 C       -11.2437316069       -7.3718622699      -10.6149867689
 C        -4.5213750496       -7.8841109301       -6.4970134298
 C        -5.7841420969       -9.9993476922       -6.4915878282
 C        -3.1790482018       -6.0984890386       -1.7844381242
 C        -5.5964811903       -5.5082086747       -0.8871026751
 C        -5.5785517626       -0.8593450884       -5.5245672399
 C        -7.6326777934       -2.2179098584       -5.9817169661
 C        -4.4905665255       -1.2187101355      -13.2090264965
 C        -2.2668918709       -2.4415337931      -12.8146636702
 C         2.5858038393        0.1559681380      -13.6662585735
 C         2.8553108202        2.6931850955      -13.6920167511
 C         7.0573997417        0.5190473199      -19.2251521202
 C         7.3018114885       -0.1982640465      -16.8943464403
 C         8.9492556933        6.4197566273      -15.1098467353
 C         7.1790277295        5.6077665367      -13.4876162089
 C         3.6061220357        5.3679556171      -17.8757345186
 C         3.4220136104        7.8036512550      -18.4859488033
 C        -3.1858224221        7.0720006177      -15.9601955350
 C        -2.7125821796        8.2089498574      -13.8277737267
 H         0.0506287608        5.1035717525      -13.1236451885
 H        -1.6877990310        5.3838373504      -12.9189780391
 H        -0.6808973144        6.6682321739      -12.5759344033
 H        -1.6431295254        8.3210857474      -18.0572891964
 H        -1.2872075403        6.7030551327      -17.4347096569
 H         0.9934423686        8.6708173027      -17.8645787840
 H         0.3221435813        7.7569318834      -19.1796027091
 H         3.4472446530        8.6266539810      -14.7680185010
 H         4.4709963711        8.5923339687      -16.2239257175
 H         4.8068761525        6.4049345087      -14.2053499825
 H         5.2907111684        7.9062278378      -13.7398975536
 H         8.7284460934        4.6272061253      -17.0067506760
 H         7.6011960411        5.6774061083      -17.8002035304
 H         7.9148293928        3.4639370985      -19.0044683488
 H         6.3341332908        3.4968739533      -18.4752754120
 H         4.7256252477        1.1041271597      -15.5059651048
 H         5.0486599444       -0.4826270759      -15.9614774481
 H         2.5546735713       -0.7467134394      -16.1480786591
 H         2.7385675096        0.1498656928      -17.5475731071
 H        -0.2763654551        1.0537504455      -12.0246360693
 H         0.1882884935       -0.1615421123      -13.1794234452
 H        -1.6209309766       -0.3826868176      -14.1778745311
 H        -2.1984503789        1.4101171512      -14.1479195798
 H        -5.7128470429       -1.9805196130      -10.3042765017
 H        -5.4007521437       -0.3708074412      -10.7875447012
 H        -5.1992989743       -0.1173717030       -8.3069891407
 H        -3.9811835487       -1.2819661069       -8.1979121838
 H        -3.7874390474       -2.4557829276       -4.6241551090
 H        -3.1091464718       -3.3514444670       -5.9147723197
 H        -2.7368870897       -4.7639943436       -3.6929182272
 H        -3.8466711596       -5.5112011440       -4.9319188534
 H        -6.9769741963       -6.2736813967       -3.4791086707
 H        -7.3255766878       -7.6080464038       -2.3046441525
 H        -7.8337631943       -8.9132342073       -3.9894962242
 H        -6.1789565123       -9.0606946377       -4.0537898765
 H        -8.4909772404       -8.1924512216       -7.7604362803
 H        -7.8190875679       -9.7677990311       -8.1805297710
 H        -9.1781023068       -9.0412228361      -10.1871079772
 H        -7.5098096142       -8.6611503066      -10.6684967413
 H       -12.4474489672       -7.0909697291       -8.1062989346
 H       -12.0229389118       -5.8896255700       -6.9082603888
 H       -10.2607635575       -7.1644953416       -5.9107748099
 H       -10.4886232774       -8.4662133449       -7.0250872399
 H       -12.7649915378       -9.5276529915       -1.9756234534
 H       -12.7738524847       -7.7965423262       -2.0631595719
 H       -10.2466818328       -8.3319793639       -0.6591250460
 H       -11.4138934164       -9.5634586217       -0.0466671086
 H        -8.9432606177       -8.9399841087        2.3867669700
 H       -10.0744360437      -10.2323758039        2.9452621080
 H        -9.6268828748       -8.9501380842        4.0394486110
 H        -9.7308017783       -5.3649515504        1.2891465200
 H        -9.0568991099       -6.8207406738        0.6872496596
 H        -9.1558061487       -6.6581097199        2.5333901243
 H       -11.5382934777       -5.9671258976        3.4914958298
 H       -12.9906530866       -6.3757921106        2.5385050810
 H       -11.8746519221       -5.0586541636        1.9937204073
 H       -13.0116375788      -10.7317804143       -3.5170162437
 H       -13.5959197688      -10.4722770844       -5.1138841352
 H       -13.9578061598       -9.3237718003       -3.6238633561
 H       -10.0042756359       -9.8944616193       -5.5790763638
 H       -11.5605320344      -10.5557180473       -6.1533169839
 H       -10.6378665357      -11.1240954319       -4.6463756689
 H        -9.2814675921       -4.6839247798      -11.3131423362
 H       -10.4368054678       -4.1587965254      -10.1759977077
 H       -11.0560155179       -4.9810669058      -11.5481499118
 H       -10.9356488568       -7.5330871053      -11.5540452256
 H       -12.1398922520       -6.7960156648      -10.5963832470
 H       -11.1996818339       -8.2369691688      -10.0105089027
 H        -4.5584057154       -6.9227544630       -6.9606090101
 H        -3.7516347901       -8.6333418297       -6.8068386111
 H        -4.2909212533       -7.8026196163       -5.4305013669
 H        -5.1843267626      -10.2163588412       -5.6095211441
 H        -5.1350068425      -10.3590054294       -7.2532739393
 H        -6.7763859266      -10.5060203222       -6.4530314874
 H        -2.6094203268       -5.2368704539       -1.4905912684
 H        -2.5386097192       -6.4489085486       -2.6190127122
 H        -3.1078279636       -6.9087185246       -1.0979773675
 H        -4.9887650277       -5.2168496261       -0.0656745434
 H        -5.9233318202       -6.5311469413       -0.5438772972
 H        -6.3739758527       -4.7922709682       -1.1344984320
 H        -5.7557416112       -1.0736675822       -4.4692617781
 H        -6.2364155462       -0.0257868264       -5.7509173867
 H        -4.5467661134       -0.6518254255       -5.7260560652
 H        -8.0465232358       -3.1372861259       -6.4372920090
 H        -8.1309019634       -1.3258369164       -6.3345269964
 H        -7.8348282075       -2.2846838322       -4.8945377459
 H        -5.2553128714       -1.9107508970      -12.9067198281
 H        -4.2059947261       -1.3296795039      -14.1974865561
 H        -4.8790088261       -0.2306251222      -13.1596852585
 H        -2.4961715368       -3.4338740108      -12.3457216438
 H        -1.1957654401       -2.1930693868      -12.5686526742
 H        -2.4895708904       -2.5743050226      -13.8694303191
 H         2.0782734498       -0.6880189876      -14.0366031454
 H         2.4370510392        0.1767169269      -12.5585036795
 H         3.6092117674        0.1048647651      -14.0818492197
 H         2.6625730335        2.8734553016      -12.6525898929
 H         2.6979340279        3.6652892494      -14.2486851318
 H         3.9762203565        2.5350496305      -13.7923927492
 H         7.1007448379        1.4342818886      -19.8629588100
 H         6.4787252540       -0.2926254913      -19.5838847967
 H         8.0373252503        0.1541732416      -19.1807993563
 H         8.3081874439       -0.2302276986      -17.1134388538
 H         6.7969403159       -1.1912685645      -17.1504043830
 H         7.1674628075        0.1662344873      -15.8594211205
 H         9.5327074188        5.5649398150      -14.8579996380
 H         9.1907615669        7.1817528641      -14.3263040017
 H         9.1935971455        6.9631956127      -16.0834425442
 H         6.0864662159        5.3091936500      -13.2390217241
 H         7.5213182549        6.3632502709      -12.8351319726
 H         7.7326783082        4.7605875957      -13.3169735822
 H         4.0571847401        5.3655368134      -18.9074886967
 H         2.9679591176        4.5579042273      -17.9618280412
 H         4.4145845304        5.0987147737      -17.2436430110
 H         3.1950139381        8.8254702550      -18.3695339496
 H         3.0872617903        7.7176404331      -19.5140919320
 H         4.5019286221        7.5853034324      -18.5687318245
 H        -3.0305942672        6.1066321286      -16.3302493657
 H        -3.2782945400        7.8519058946      -16.7502481803
 H        -4.0828009633        6.9369079680      -15.4392509081
 H        -2.0878532765        8.5965149622      -12.9898901944
 H        -3.4363806428        7.5999247560      -13.3369092593
 H        -3.3050074704        9.0720531540      -14.1336908946
 Na        1.1306797670        4.3666124910      -15.7954080334
 Na       -7.0964371474       -5.2393990718       -7.7911920191
