232

 C        -1.0972830395        5.8085105614      -13.1847790929
 C        -1.3960937165        6.0994134890      -14.5766359748
 O        -0.9842540762        5.3727899602      -15.4672136082
 C        -2.1201711828        7.3876659449      -14.9612606895
 C        -0.9819756302        7.9736809977      -15.8931390816
 O        -0.2126241426        8.7380613744      -15.3646924301
 C        -0.8084173452        7.5921006378      -17.3934693780
 C         0.5663394832        7.7337757971      -17.9279318055
 C         1.3255781655        6.4368829438      -17.7497558846
 O         0.7593385543        5.3555085801      -17.8853801370
 C         2.9373884552        6.5818583168      -17.6222591612
 C         3.1187942843        6.8487571839      -16.0949001545
 O         2.4694461444        6.1982520219      -15.2991049277
 C         3.9064887877        8.0256374442      -15.5354819647
 C         5.0532327756        7.5419387814      -14.5889331576
 C         6.2475099526        7.1133144373      -15.4131531623
 O         6.5226121485        7.6021251074      -16.5115703005
 C         7.2695729699        6.0732600730      -14.8869734425
 C         6.8234618487        4.8814713710      -15.8819287961
 O         5.8308867823        4.2139071716      -15.6640830635
 C         7.5865987388        4.6997442085      -17.1944592103
 C         7.0571497316        3.5072286853      -17.9797418988
 C         7.3316567241        2.1660729666      -17.2548159243
 O         7.9282039519        2.0992141375      -16.2204054826
 C         6.6278644060        0.8201586080      -17.7661297626
 C         5.0957440497        1.0440041790      -17.6338437824
 O         4.6055913764        1.8327069148      -18.4072123712
 C         4.4606646299        0.3266346792      -16.4465377078
 C         2.9878201320        0.3078313318      -16.6721288629
 C         2.2803464691        1.4492661209      -16.0039493645
 O         1.9197140113        2.4369871060      -16.6629415013
 C         2.1116613712        1.4928009311      -14.4879237342
 C         0.5246868308        1.7148732647      -14.1007029527
 O         0.0566067844        2.7207712915      -14.5650714434
 C        -0.1598780262        0.6403173066      -13.2669305148
 C        -1.6513993741        0.5001224889      -13.6087658294
 C        -2.4825337577        0.2365864691      -12.2949730639
 O        -2.5116746650        0.9311025704      -11.3372137888
 C        -3.2212778116       -1.2712546669      -12.1832266605
 C        -3.5334097614       -1.5673655313      -10.6388797097
 O        -2.8063041376       -2.2422323973       -9.9203342193
 C        -4.8156517677       -1.0686484856      -10.0601125416
 C        -4.8059356596       -1.1721321067       -8.5132001109
 C        -5.7616409132       -2.2134147449       -7.9018798306
 O        -6.4331855486       -2.9801237493       -8.5708082941
 C        -6.1090300066       -2.1706622809       -6.3605267567
 C        -5.3830122331       -3.4778565056       -5.8644069872
 O        -5.9331307660       -4.5224706233       -6.1659768825
 C        -3.9667402955       -3.3422418063       -5.2335104009
 C        -3.6155981962       -4.5651308746       -4.3984415630
 C        -4.8096684296       -4.6269169003       -3.2156130600
 O        -5.6769679513       -3.7861716627       -3.1474135843
 C        -4.7973948617       -5.7405714243       -2.1464307305
 C        -5.1939926815       -7.1421751422       -2.8708399995
 O        -4.4330220892       -8.0393376643       -3.1851585641
 C        -6.6914409942       -7.1770315763       -3.2566155068
 C        -7.1262053477       -8.3515397865       -4.1593409213
 C        -6.9041255363       -7.9282336241       -5.6141584925
 O        -7.5766386363       -7.0569673019       -6.1165443517
 C        -5.9063509478       -8.6131089765       -6.6293424386
 C        -6.4955766983       -8.2847385009       -8.0571034573
 O        -5.7947573505       -7.6232888213       -8.8094171620
 C        -7.8231363696       -8.9055757184       -8.4278788516
 C        -8.3933159328       -8.4447334762       -9.7847280697
 C        -8.6842746312       -6.9357530031       -9.9311029791
 O        -7.7998614714       -6.0680673298       -9.9489885688
 C       -10.1657960679       -6.3044085221       -9.8941478607
 C       -10.4669534573       -5.8297814778       -8.4361517192
 O        -9.6182395585       -5.0287967630       -7.9471006541
 C       -11.6198897686       -6.3597360502       -7.6715641236
 C       -11.1397881876       -7.4267261353       -6.5485080661
 C       -12.2611562801       -8.1178877036       -5.7321040847
 O       -13.4049187421       -7.7865163272       -5.9013651195
 C       -11.9921370589       -9.3300809967       -4.6376059740
 C       -11.3761732435       -8.7122934191       -3.2572531437
 O       -10.2010071636       -8.4478304850       -3.3275054639
 C       -12.0896983047       -8.7189038585       -1.8914807171
 C       -11.2331698985       -8.3650211535       -0.6879041267
 C       -11.7492008831       -7.2083143936        0.2046239675
 O       -12.5519002189       -6.4349496539       -0.2069949550
 C       -10.9695668084       -7.0367180383        1.5696091057
 C       -11.1249146780       -8.3296241944        2.5838494509
 O       -12.1930378251       -8.5853286858        3.0675141852
 C        -9.7617455497       -9.0701399618        2.7448080581
 C        -9.5947997030       -6.5799065738        1.1332388332
 C       -11.8358976405       -5.8752723150        2.3796198543
 C       -13.3441399045      -10.0114901233       -4.5160352679
 C       -10.8810678034      -10.2956401562       -5.1209208339
 C       -10.0972421019       -5.0489038915      -10.8023062945
 C       -11.1696783653       -7.2812583478      -10.5884200511
 C        -4.4835229122       -7.9998146951       -6.4478412113
 C        -5.9239654278      -10.1720419821       -6.4237451315
 C        -3.4303703496       -6.0093217201       -1.6331564348
 C        -5.7144779496       -5.4440392035       -0.9232215618
 C        -5.6148415080       -0.8376065558       -5.6568200262
 C        -7.6080463096       -2.2397111446       -6.1848103791
 C        -4.4451946158       -1.2588084039      -13.0584045813
 C        -2.1723394846       -2.3094600351      -12.5862332345
 C         2.6552379728        0.2973636399      -13.6143503191
 C         2.8010164418        2.7426109225      -13.8889203239
 C         7.0347236209        0.7468213883      -19.2765424881
 C         7.2310160603       -0.3546409009      -16.9904052923
 C         8.7011496592        6.5040965149      -15.2217770037
 C         7.1326393875        5.5345660726      -13.5000596014
 C         3.7703288939        5.3235060856      -17.7988699426
 C         3.5995943771        7.6938387293      -18.4271758852
 C        -3.5514478256        7.2657276088      -15.7874706226
 C        -2.2131843065        8.3325141187      -13.7562258740
 H         0.0150891705        5.7839678398      -13.2199118745
 H        -1.4518502748        4.8182780905      -12.7620248513
 H        -1.4054103880        6.6564657664      -12.5683529838
 H        -1.4124642044        8.2669963357      -17.9387124171
 H        -1.1443580274        6.6034756094      -17.8074308278
 H         1.0939785715        8.5705651599      -17.4157927094
 H         0.5503360391        8.0464705455      -18.9865912334
 H         3.2154980622        8.6353552681      -14.8872157485
 H         4.2981614674        8.6516470219      -16.3469047156
 H         4.6205967581        6.7062660028      -13.9705181479
 H         5.2290688141        8.2530550656      -13.8005976652
 H         8.6826606481        4.6282725462      -17.0624581846
 H         7.4639155231        5.6406247390      -17.6469971551
 H         7.4621263667        3.5473966118      -19.0490140330
 H         5.9384316120        3.6266467482      -18.1533999718
 H         4.8827992823        0.6371505293      -15.4777727924
 H         4.8566048833       -0.6599302893      -16.5156157918
 H         2.4672377953       -0.6373854986      -16.1777847158
 H         2.7597077347        0.2407842844      -17.7164375162
 H        -0.0001234409        0.8089612477      -12.1570593496
 H         0.3152166320       -0.2921582992      -13.4671828836
 H        -1.6426142814       -0.5255500225      -14.0878230221
 H        -1.9706987220        1.3577223636      -14.1676564287
 H        -5.5957351519       -1.6770905985      -10.4531021163
 H        -5.1559108837       -0.1370610480      -10.3913250164
 H        -5.0569066669       -0.0810460821       -8.3323014469
 H        -3.7750129286       -1.4960367006       -8.1285345885
 H        -3.8921360173       -2.4775288758       -4.5904883217
 H        -3.3003782923       -3.1872062506       -6.1113265640
 H        -2.7626460399       -4.4787190886       -3.7772845290
 H        -3.5825766682       -5.4305043563       -5.0276656183
 H        -7.0840861302       -6.2403561086       -3.7612390694
 H        -7.0932440231       -7.2854195039       -2.2160707490
 H        -8.1659231084       -8.6285007044       -3.9687212109
 H        -6.5525686337       -9.3521741940       -3.9240971428
 H        -8.5359930194       -8.8518671359       -7.5952639794
 H        -7.5115140686       -9.9845174320       -8.4424172372
 H        -9.2863695670       -8.9794511112      -10.0809761125
 H        -7.6597329252       -8.6666112550      -10.5480941865
 H       -12.1796267731       -6.9498245759       -8.3928337581
 H       -12.3010124909       -5.6340910674       -7.2674013992
 H       -10.4098397574       -7.0598209438       -5.8227691814
 H       -10.5375370871       -8.1587100845       -7.1341419543
 H       -12.4843570883       -9.7273548603       -1.7854919129
 H       -12.9792761512       -7.9625172270       -1.9521352878
 H       -10.2267967358       -8.1579831111       -0.9862395675
 H       -11.1726822016       -9.1810001842        0.0004497566
 H        -9.2433993609       -9.0249236178        1.7802505324
 H        -9.7346227777      -10.0409672733        3.1920258292
 H        -9.2438537765       -8.3395162183        3.4767849515
 H        -9.4924400590       -6.0349298365        0.2131838476
 H        -8.9832565330       -7.3797851094        0.9920226000
 H        -9.1234273731       -6.0787161149        1.9705994740
 H       -11.1342072457       -5.4137092485        3.0333510158
 H       -12.5942916369       -6.4420375957        2.9009299074
 H       -12.2831646550       -5.0746363318        1.7304901955
 H       -13.4140764030      -10.8976640216       -3.8138266492
 H       -13.6844389079      -10.3837903056       -5.4360392568
 H       -13.9848200670       -9.2848136585       -4.1170826584
 H        -9.9244046846       -9.7414215198       -5.1390502020
 H       -11.1406410841      -10.8318154549       -6.0064020589
 H       -10.6614235544      -10.9941503625       -4.2684254561
 H        -9.6357404215       -5.4106213815      -11.7154188883
 H        -9.5159301005       -4.2378262249      -10.3217279602
 H       -11.1240388967       -4.6515805974      -11.0138886684
 H       -10.7134207466       -7.4331971507      -11.6515463520
 H       -12.0987353115       -6.7032196134      -10.6444470470
 H       -11.0641665399       -8.1843570545      -10.0013007451
 H        -4.5231715006       -6.9604372671       -6.0963002123
 H        -4.1185470441       -7.9594354964       -7.4602954339
 H        -3.8497435442       -8.6741077214       -5.9074026013
 H        -5.5403021510      -10.4373384175       -5.4369526960
 H        -5.1850877914      -10.6183485671       -7.2150664561
 H        -6.8902904232      -10.5788658218       -6.5105213468
 H        -2.8601673603       -5.1370788355       -1.3204765417
 H        -2.7436152280       -6.5058096921       -2.2764932822
 H        -3.5373727076       -6.7400983435       -0.8220060546
 H        -5.3259389271       -4.5320411293       -0.4503633892
 H        -5.6323925578       -6.2428804410       -0.2669284966
 H        -6.7111689612       -5.2208305056       -1.3053069161
 H        -6.0392090637       -0.7541140276       -4.6611939665
 H        -6.0781883137        0.0103988779       -6.1628953590
 H        -4.5197148738       -0.7250935542       -5.7560193650
 H        -8.0216586367       -3.0599290699       -6.7445224400
 H        -8.0642984050       -1.2431236648       -6.3807287869
 H        -7.8658334020       -2.4183673226       -5.1309168747
 H        -5.1217234508       -2.0932741500      -12.8021924231
 H        -4.0630684256       -1.4283804195      -14.1093340118
 H        -5.0241899913       -0.3225735334      -12.9970587741
 H        -2.5274576222       -3.3146555946      -12.5370168011
 H        -1.3858094245       -2.2618129726      -11.8961441738
 H        -2.0002056692       -2.2173918442      -13.6500590367
 H         2.1591439909       -0.6518569479      -13.9379075727
 H         2.2828715966        0.4763176465      -12.6544068447
 H         3.6668579422        0.2148318445      -13.7081381311
 H         2.3837929789        3.0064421517      -12.8907574132
 H         2.6691503485        3.5798197809      -14.5001551782
 H         3.8532794756        2.6884843396      -13.7257592201
 H         6.4498519584        1.5337417260      -19.7874749112
 H         6.7109603680       -0.2401219708      -19.6519447751
 H         8.1400331331        0.8420747210      -19.4336902308
 H         8.3678167764       -0.1868488147      -17.0046090067
 H         6.9423527468       -1.2641839238      -17.3876809158
 H         7.0298156467       -0.1787716787      -15.9394296625
 H         9.3952772318        5.6619437067      -15.1770869524
 H         9.0432939965        7.2794123163      -14.5662590193
 H         8.6475175984        7.0931715831      -16.0851463132
 H         6.3008110063        4.9257402769      -13.3920801249
 H         7.1976081430        6.3919512142      -12.8250730279
 H         7.9375162641        4.8107153044      -13.1301990236
 H         3.8305836376        4.9977924850      -18.8271980956
 H         3.5107596502        4.3847435468      -17.2936781345
 H         4.7917816975        5.5933176911      -17.5197805452
 H         2.9936873270        8.6885651045      -18.4192307864
 H         3.5880076000        7.4300603249      -19.4950471253
 H         4.5928571103        8.0264242708      -18.1567274059
 H        -3.4007245167        6.7120271067      -16.7387208930
 H        -3.9374144956        8.2283250517      -15.9783536481
 H        -4.1997400839        6.5095504048      -15.3246234118
 H        -1.3211093209        8.7762046491      -13.3447852559
 H        -2.7534892927        7.8638131682      -12.8720889357
 H        -2.8268351441        9.2336592687      -13.9631040447
 Na        1.2362832790        4.3214078727      -15.9652234665
 Na       -7.2142002376       -5.3173052634       -7.9189182300
