232

 C        -1.2717138841        5.5746789687      -13.1138703346
 C        -1.4982731308        6.0688489539      -14.5707954611
 O        -1.1926583336        5.3259479577      -15.5055902651
 C        -2.0172896661        7.4694166131      -14.8932504135
 C        -0.7955580632        7.9710452081      -15.9770099328
 O         0.0586996501        8.6853750352      -15.4846012927
 C        -0.8510962294        7.6081709519      -17.4286519007
 C         0.6059248679        7.8995835973      -18.0043609948
 C         1.4367622767        6.5893541070      -17.8612773423
 O         0.9159944684        5.5124112247      -17.8854888184
 C         2.9504615917        6.6477595107      -17.6237361975
 C         3.1784687793        6.8250411524      -16.0206864656
 O         2.6133282346        6.0402304294      -15.2760155579
 C         3.7615153176        8.1341138397      -15.3629686492
 C         4.9301670575        7.6665357567      -14.4897964754
 C         6.1243739387        7.2081834566      -15.3726725729
 O         6.3559110091        7.8388502566      -16.3861231790
 C         7.1076877187        6.0502517988      -14.9377384163
 C         6.7984516736        4.7795283734      -15.7820664933
 O         5.9513779911        4.0133595553      -15.3661860558
 C         7.4497542159        4.6519724798      -17.1602008134
 C         7.0647808607        3.4118925995      -17.9036054988
 C         7.4833422892        2.1042928179      -17.2785150726
 O         8.2530435899        2.0920299519      -16.3561012265
 C         6.7182259501        0.7552097385      -17.8616061879
 C         5.1042680272        0.8094934765      -17.7456310678
 O         4.4805999429        1.6458152157      -18.3554921464
 C         4.3867385668       -0.1110319591      -16.7164044339
 C         2.8986140587        0.1580062502      -16.7195896180
 C         2.4405690749        1.4953825806      -16.0835994671
 O         2.1443849401        2.5179890353      -16.6563706835
 C         2.2625764360        1.5273189407      -14.5405519675
 C         0.6482047088        1.6701508255      -14.2001669952
 O        -0.0412828624        2.5942234301      -14.6354755542
 C        -0.1514700395        0.4960377750      -13.3742035117
 C        -1.7112668532        0.7448562368      -13.4950027262
 C        -2.4411959694        0.2282822334      -12.1453630365
 O        -2.6732818194        0.9634837537      -11.2058201733
 C        -3.0085382352       -1.3626271581      -12.0590508713
 C        -3.3857810525       -1.6476116211      -10.5552958668
 O        -2.7992101679       -2.3795177799       -9.8191652396
 C        -4.6753299373       -0.9352946270      -10.0495955595
 C        -4.9179739961       -1.0591654223       -8.5053777672
 C        -5.9471545845       -2.1411997149       -8.0825969198
 O        -6.1814563979       -3.1293035272       -8.7533909456
 C        -6.2269134164       -2.1977240871       -6.4902148224
 C        -5.3363581033       -3.4903466643       -5.9627587224
 O        -5.7685333465       -4.6114602586       -6.1879588961
 C        -3.9669416219       -3.3440956094       -5.2388989172
 C        -3.7193453373       -4.5683324024       -4.3496833719
 C        -4.7798239331       -4.5613961680       -3.1396558014
 O        -5.5696479573       -3.6520075456       -2.9812643875
 C        -4.8166118666       -5.6698121205       -2.0992078610
 C        -5.3459624352       -6.9612020103       -2.9247036988
 O        -4.5229977588       -7.8535325465       -3.2128949277
 C        -6.8047248906       -7.1962083733       -3.2364991082
 C        -7.1061145773       -8.3201200005       -4.2349639883
 C        -7.0089258066       -7.9427275012       -5.7060679397
 O        -7.6493944871       -6.9502154780       -6.1047996673
 C        -6.0203008266       -8.7779607088       -6.5919498436
 C        -6.4914860076       -8.4250746812       -8.0419510318
 O        -5.8602830810       -7.6696209575       -8.7226585319
 C        -7.8946862098       -9.1054981970       -8.5994875122
 C        -8.4516805270       -8.5077775248       -9.8876875162
 C        -8.6201158753       -6.9510278342       -9.9145226246
 O        -7.6641326288       -6.2205935354       -9.9747018136
 C       -10.1150593292       -6.3165418097       -9.7387388946
 C       -10.3653499842       -5.9100332741       -8.2428589657
 O        -9.6202258478       -5.1588138766       -7.6944922589
 C       -11.5730389132       -6.4977270864       -7.4328647770
 C       -11.0914289361       -7.3715055597       -6.3031306012
 C       -12.3046216662       -7.9687266807       -5.5956379526
 O       -13.4272927208       -7.5584284881       -5.9129443208
 C       -12.0192658178       -9.3049558449       -4.6781018475
 C       -11.4188668090       -8.7578787285       -3.3841589529
 O       -10.2981239722       -8.2509464090       -3.3592896659
 C       -12.2796380539       -8.5812480550       -2.1039949024
 C       -11.2865957107       -8.3271407551       -0.9457433356
 C       -11.7219801120       -7.1795503687        0.0076433483
 O       -12.6258865347       -6.4816842997       -0.3829995356
 C       -10.9275955156       -6.8798036029        1.3889097489
 C       -10.9815568146       -8.1397286533        2.5768407801
 O       -11.8840998657       -8.1689387029        3.3751056472
 C        -9.7141915475       -9.1998177217        2.6363877868
 C        -9.4537634890       -6.5949054316        1.0076149324
 C       -11.5611479727       -5.6475644732        2.1040262364
 C       -13.3438345193      -10.0438428548       -4.4846258068
 C       -11.0230584588      -10.2386692632       -5.4079395853
 C       -10.0498259609       -5.0915552350      -10.6929358355
 C       -11.1880265554       -7.2677343530      -10.2107725171
 C        -4.5945606089       -8.2082511010       -6.2695196612
 C        -5.9561373069      -10.3407369203       -6.2969953799
 C        -3.3975794508       -5.8947941938       -1.4518335267
 C        -5.8492778599       -5.2921345811       -0.9964144901
 C        -5.5907834576       -0.9717785265       -5.8486730796
 C        -7.7242596169       -2.4070556543       -6.0974865778
 C        -4.3344979595       -1.2664056486      -12.8996469613
 C        -2.0674758525       -2.4344429149      -12.5099498597
 C         2.9309145489        0.3372366423      -13.7829377658
 C         2.9615122578        2.8073976963      -13.9625475441
 C         7.0119772340        0.8662693253      -19.4383079798
 C         7.4405965738       -0.5517234629      -17.2927295391
 C         8.5559735554        6.5200564166      -15.1967476075
 C         6.9569274069        5.7289246964      -13.4658101488
 C         3.4575285662        5.2277260192      -17.9532256253
 C         3.6346770639        7.6800097049      -18.5553209328
 C        -3.4441336258        7.1491156089      -15.4434491350
 C        -2.2061430267        8.5399778030      -13.7868588445
 H        -0.3661042408        5.8526538531      -12.5924734132
 H        -1.1033810266        4.5760506284      -13.4400075429
 H        -2.1585389863        5.6248176520      -12.4685361037
 H        -1.7209381557        8.0919331379      -17.9287508120
 H        -1.0229398328        6.5905162568      -17.6350194618
 H         1.0507480810        8.7488077617      -17.5322281614
 H         0.6339184941        8.1554390597      -19.0581418505
 H         2.9587568489        8.5276991109      -14.8039637184
 H         4.1499689387        8.8525591695      -16.0800566160
 H         4.5746368745        7.0089948252      -13.7268561355
 H         5.2788635945        8.5538493639      -13.8879753763
 H         8.5232355234        4.7229378942      -17.0082696873
 H         7.2303409837        5.6446879003      -17.7033957635
 H         7.4104750198        3.4692320199      -18.9018332990
 H         6.0068824157        3.4314010884      -18.0545397796
 H         4.8520298402       -0.1226430644      -15.7375160062
 H         4.5769144640       -1.1763191368      -17.0375738140
 H         2.4006221300       -0.6414315688      -16.2882817209
 H         2.4816071224        0.2428934807      -17.7496043822
 H         0.0942114120        0.4290879393      -12.3393571046
 H        -0.0033001072       -0.4940836105      -13.9263030023
 H        -2.0298415819        0.3176790305      -14.4518703405
 H        -1.9341178373        1.8296904711      -13.4282216889
 H        -5.5399718047       -1.2292447404      -10.7125008523
 H        -4.6512590106        0.1643476792      -10.3418548407
 H        -5.1904155628       -0.0823017138       -8.2860967950
 H        -3.8919116026       -1.3632677759       -8.1841139155
 H        -3.8974221784       -2.5223559431       -4.4762750505
 H        -3.1826238523       -3.2262998702       -6.0287999608
 H        -2.6596956419       -4.4157904587       -3.9302534278
 H        -3.8723079149       -5.5652866528       -4.8068763958
 H        -7.3044644885       -6.3629392998       -3.7719821826
 H        -7.3168770564       -7.3440343239       -2.2368351372
 H        -8.0822856816       -8.7747024937       -4.1194955060
 H        -6.5109838312       -9.1789665338       -4.0747390628
 H        -8.6037354701       -9.0927207946       -7.8066771156
 H        -7.7749015508      -10.1680411091       -8.7573263598
 H        -9.4195850683       -8.9870099796      -10.0103318410
 H        -7.8173665175       -8.8031347538      -10.7244188459
 H       -12.3601960565       -7.0668819606       -7.9561528917
 H       -12.0875058528       -5.6014439554       -7.0402093764
 H       -10.1642330738       -7.1123622467       -5.7736775125
 H       -10.6739523544       -8.1834801132       -6.9160278447
 H       -12.6392128399       -9.6318738353       -1.9106781337
 H       -13.0448549353       -7.8671694300       -2.2422367407
 H       -10.2815046202       -8.1379456190       -1.4069182228
 H       -11.1527087436       -9.2335502595       -0.3071141455
 H       -10.1511187273      -10.0594604780        2.1361252190
 H        -9.4460315451       -9.4783699482        3.6770349990
 H        -8.8576247587       -8.8543991111        2.2238672560
 H        -9.3534363669       -5.6172549149        0.5182172243
 H        -8.9070085084       -7.3955329558        0.4289204801
 H        -8.7738503346       -6.4000967065        1.8661027676
 H       -10.7224541157       -5.3467809463        2.7866409725
 H       -12.5643156026       -5.8680234078        2.4937678330
 H       -11.5833825603       -4.8348446021        1.4214518930
 H       -13.2196996309      -10.8723038960       -3.8510089637
 H       -13.7156009527      -10.4906201266       -5.4262266197
 H       -14.1576961628       -9.3686436560       -4.1049845765
 H       -10.0368988134       -9.7835462917       -5.3063236261
 H       -11.4022681501      -10.3845066666       -6.4536843656
 H       -11.0246681571      -11.2154066027       -4.9622281428
 H       -10.7379254140       -5.3064600595      -11.5615207930
 H        -8.9904188489       -4.9077175238      -10.9619539662
 H       -10.3428149810       -4.1819634902      -10.2010171331
 H       -10.7694274569       -7.6482689820      -11.0454179181
 H       -11.9902283341       -6.6279639660      -10.4398910962
 H       -11.2820116325       -8.0291666195       -9.4423825302
 H        -4.7578582454       -7.2425531966       -5.7534808783
 H        -3.9731877031       -7.8695533207       -7.1675206433
 H        -4.1054248182       -8.9842276110       -5.5952818631
 H        -5.4361977284      -10.5028591503       -5.3537594080
 H        -5.5563143164      -10.7951952015       -7.0911018424
 H        -6.9910902411      -10.7886651610       -6.0958245588
 H        -2.9455014933       -5.0445449573       -0.9084792355
 H        -2.6863332427       -6.0617660012       -2.2803958424
 H        -3.2569124247       -6.7717616203       -0.8271746870
 H        -5.7703640109       -4.2556686185       -0.6980781628
 H        -5.6994645334       -6.0680591426       -0.1796023166
 H        -6.7906549178       -5.3608283697       -1.4922432132
 H        -5.7262872562       -1.1326978688       -4.7849914780
 H        -6.1508554610       -0.0427465952       -6.0229371804
 H        -4.5738394439       -0.8109018401       -6.1742394192
 H        -7.9785931235       -3.4149478916       -6.4310188277
 H        -8.3137421370       -1.6342627699       -6.5176396562
 H        -7.9627100644       -2.3506989141       -5.0705053099
 H        -4.7156848508       -2.2532478209      -13.1526618932
 H        -4.1375970885       -0.7549424804      -13.8298806564
 H        -5.1295023159       -0.7542151337      -12.3265662304
 H        -2.6263056806       -3.3324057267      -12.8189376756
 H        -1.4894560405       -2.8157675992      -11.6422594596
 H        -1.6088897889       -2.2050376840      -13.4380171084
 H         2.6865441938       -0.5973197649      -14.2063935985
 H         2.5230049245        0.4222196201      -12.7465987228
 H         4.0769997659        0.5979061868      -13.7847911830
 H         2.8230858317        2.8535441612      -12.8962043874
 H         2.6015421638        3.7752841811      -14.3602711600
 H         4.0440047327        2.8379936854      -14.0480454416
 H         6.2539497927        1.4221623349      -19.9255392904
 H         7.1060365027       -0.1076722505      -19.9515389788
 H         7.9875013282        1.3664237185      -19.4368386301
 H         8.3276080197       -0.7100189185      -17.8433459906
 H         6.7227279112       -1.4153038752      -17.4433887746
 H         7.7692112449       -0.3769741520      -16.2969280124
 H         9.1570277231        5.6630625959      -14.8761125716
 H         8.7690457242        7.3951264021      -14.5971536232
 H         8.7787299733        6.9782958105      -16.1484043140
 H         6.3253348812        4.7844742312      -13.3518457032
 H         6.8231446936        6.6244139894      -12.8059835315
 H         7.8583219674        5.3077855467      -13.0529800829
 H         2.7550091036        4.6346205220      -18.5146571470
 H         3.5613841031        4.6061109968      -17.0208656333
 H         4.4523275999        5.1173003440      -18.4120963375
 H         3.6529642849        8.7142451451      -18.3148888972
 H         3.3378154398        7.4933050512      -19.6248244150
 H         4.7540250696        7.5853534960      -18.4530152704
 H        -3.6117776253        6.7291286263      -16.4233424545
 H        -3.9125486205        8.1548182254      -15.3778495069
 H        -3.8854636146        6.3972597708      -14.7880742320
 H        -1.3992980365        8.4430679319      -13.0543406946
 H        -3.0592781799        8.4845512559      -13.2254752975
 H        -2.0165719153        9.5363123251      -14.0515834578
 Na        0.7677184517        4.3986578348      -15.8420587609
 Na       -7.3455228913       -5.1952213636       -7.8998388845
