232

 C        -1.3954328685        5.5398901571      -13.0930370104
 C        -1.4508857468        5.9987157842      -14.5435890484
 O        -1.4022699583        5.3083465471      -15.5098120622
 C        -1.9074570996        7.5102040261      -14.8754286478
 C        -0.7676339905        8.0734480568      -15.8871761726
 O         0.1062720579        8.7222216245      -15.3768063838
 C        -0.7021542762        7.7702435446      -17.3864406856
 C         0.5712653374        7.7920597247      -18.2497680696
 C         1.3690332306        6.6193575491      -17.9016164851
 O         0.7249476520        5.5801192359      -17.9216869299
 C         2.9720137537        6.5967330493      -17.5587312344
 C         3.0328245542        6.8751635098      -16.0844514519
 O         2.7116998061        6.0062631799      -15.3300565116
 C         3.7155936829        8.1447907969      -15.3445300834
 C         4.9069809744        7.6333962065      -14.4700221154
 C         6.1054665731        7.3192950541      -15.3479135850
 O         6.2908667698        7.8736003857      -16.4192095559
 C         7.0868816486        6.0934343924      -14.8324292534
 C         6.7345065857        4.8016523721      -15.7064887621
 O         6.0181493426        3.9253755915      -15.2352335939
 C         7.3804228220        4.6509179045      -17.1251327112
 C         6.9541133334        3.4431718715      -17.9337899008
 C         7.3940193647        1.9965991437      -17.3260131150
 O         8.2849347161        1.8502771778      -16.5314708675
 C         6.7634488408        0.7491668990      -17.9413891730
 C         5.2139847298        0.7081070833      -17.7431686798
 O         4.5875242070        1.5341464819      -18.3407874898
 C         4.4176732177       -0.2237886570      -16.8583278060
 C         2.9738890849        0.2125868069      -16.7826804366
 C         2.5038026755        1.5178561971      -16.0895787858
 O         2.2088983603        2.5351293362      -16.7604979947
 C         2.1874038347        1.4632575417      -14.3963962567
 C         0.6564682447        1.4807668278      -14.2283656892
 O         0.0525483471        2.4686486359      -14.6108145421
 C        -0.0482307347        0.4508319465      -13.4528990848
 C        -1.5511577582        0.7513559978      -13.2374055678
 C        -2.3447181230        0.1974801195      -12.0855683063
 O        -2.6919487870        0.9167094058      -11.2082349060
 C        -2.9584506247       -1.3339461198      -12.0833270337
 C        -3.3671484556       -1.6057735463      -10.5012592929
 O        -2.7643358472       -2.3937866762       -9.8128786763
 C        -4.7143746828       -0.9404626408      -10.0897984700
 C        -4.9957865230       -0.9880624824       -8.4941133433
 C        -5.7613671441       -2.2671128558       -8.0213674184
 O        -6.2274171680       -3.1318642647       -8.7479234652
 C        -6.1039783752       -2.3086495998       -6.4547269726
 C        -5.3292232304       -3.5505646602       -6.0014611139
 O        -5.7180553983       -4.6879315110       -6.2692647300
 C        -4.0045338744       -3.3173183829       -5.2496124189
 C        -3.8163785281       -4.5412048975       -4.2839417881
 C        -4.8477307007       -4.5036671544       -3.0940671687
 O        -5.5206819823       -3.4717400763       -3.0128470739
 C        -4.9697667448       -5.6903540979       -2.1222012882
 C        -5.3518466780       -6.9837533005       -2.8385334318
 O        -4.4716967268       -7.7267962503       -3.2738452900
 C        -6.8572705021       -7.0888919074       -3.2386309548
 C        -7.0836050753       -8.3039814106       -4.1557166618
 C        -6.9948104567       -7.9371450950       -5.6384166997
 O        -7.6067214152       -6.9809798737       -6.1232556683
 C        -6.1418078335       -8.7480548155       -6.5388166916
 C        -6.5569590378       -8.4680246109       -8.0935493691
 O        -5.8951443175       -7.7064423000       -8.7399742403
 C        -7.8577983399       -9.1144344634       -8.6249473370
 C        -8.4090434273       -8.5709525537       -9.9595037475
 C        -8.7223371348       -7.0778733052       -9.7788579176
 O        -7.7134884656       -6.3170624395       -9.9500573258
 C       -10.0672357071       -6.4328384492       -9.6457534397
 C       -10.2521661935       -5.9086791940       -8.1148954137
 O        -9.4717151675       -5.1085691415       -7.5746127202
 C       -11.4431119213       -6.4002106411       -7.4318297304
 C       -11.0947592818       -7.4024150384       -6.2895648745
 C       -12.3334284367       -8.0778259997       -5.6859362982
 O       -13.4136353978       -7.5079286277       -5.7270409045
 C       -12.0889555988       -9.2567716053       -4.7757876309
 C       -11.3948273482       -8.6123651949       -3.4829430660
 O       -10.2809642242       -8.1918282812       -3.5992496273
 C       -12.2071623224       -8.5544067552       -2.1261464594
 C       -11.3648261947       -8.4534467151       -0.8408604366
 C       -11.7948674259       -7.2141947195       -0.0692887559
 O       -12.6975312457       -6.4889602443       -0.3369661636
 C       -10.8338262436       -6.8666719935        1.3236781688
 C       -10.9070129101       -8.0426354512        2.4614192871
 O       -11.6977679011       -7.9344418233        3.3538061225
 C        -9.9199441320       -9.0968713094        2.4504911088
 C        -9.3469161189       -6.6030818454        0.9789305584
 C       -11.3721073043       -5.5925065501        1.9481516644
 C       -13.3868897624      -10.0162168667       -4.4087371908
 C       -11.1377097993      -10.2008344793       -5.5089710706
 C       -10.1124315497       -5.0374167520      -10.4221691324
 C       -11.1947644365       -7.4380046792      -10.1679783553
 C        -4.6437651823       -8.3062802670       -6.2848435200
 C        -6.1483442901      -10.2626829446       -6.2632289754
 C        -3.6058679197       -5.9223216300       -1.5379614398
 C        -5.8685142534       -5.2847263298       -0.8868362935
 C        -5.6686874910       -0.9937770711       -5.7157662826
 C        -7.6429023524       -2.5318692178       -6.2183830847
 C        -4.2030482291       -1.2865224223      -13.0087892789
 C        -1.9685962243       -2.3830005376      -12.5473804630
 C         2.8693676406        0.3119107318      -13.6914948317
 C         2.8920001661        2.7879542864      -13.9698495609
 C         6.9879177253        0.8773806953      -19.5139897775
 C         7.4259349018       -0.5107018134      -17.3822974312
 C         8.4978456345        6.6123688012      -15.1835104993
 C         6.7840698451        5.8458233832      -13.3624878169
 C         3.4294399868        5.2022643679      -18.0407475259
 C         3.7009941867        7.7126838747      -18.4275152941
 C        -3.3754356932        7.2130456129      -15.4764885398
 C        -2.0863148974        8.4618349422      -13.7308864942
 H        -0.9842040940        6.2614569684      -12.4430433167
 H        -0.8397549951        4.6361749238      -13.0238823941
 H        -2.4448465207        5.4390526226      -12.8541879341
 H        -1.3296075126        8.5329755795      -17.8737616657
 H        -1.2913812395        6.8268042856      -17.6772445555
 H         1.0688922173        8.7596854148      -18.1508832024
 H         0.3127369561        7.7395357532      -19.3038705542
 H         2.8739858440        8.5072085840      -14.7568293531
 H         4.1587304477        8.9391863238      -15.9404608234
 H         4.6210116340        6.7706521932      -13.8716047482
 H         5.1950518456        8.3782561452      -13.7437704305
 H         8.4799683544        4.6583929889      -16.9891847760
 H         7.2126366833        5.5996590605      -17.6670409401
 H         7.5468484774        3.5306054175      -18.7880795323
 H         5.9798422064        3.5836730703      -18.3469098721
 H         4.8649515613       -0.6307012975      -15.9328317556
 H         4.3874451599       -1.1555465622      -17.4848041407
 H         2.4376973092       -0.6761445986      -16.3393970240
 H         2.5846630497        0.3514868562      -17.7137432452
 H         0.4099871814        0.4786054822      -12.4358680795
 H         0.0506819113       -0.5395130844      -13.9631431580
 H        -1.9970136391        0.4308150224      -14.2933364180
 H        -1.7392936432        1.7816143240      -13.1041881812
 H        -5.5317252979       -1.2130872099      -10.8299731517
 H        -4.5662532038        0.1225085309      -10.4090499767
 H        -5.6693121466       -0.2238213839       -8.3928823380
 H        -4.0639982978       -0.8305964075       -8.1279842688
 H        -3.8653044801       -2.4631580991       -4.6884942539
 H        -3.2049085282       -3.4856677305       -6.0031131140
 H        -2.7045670953       -4.3909105754       -3.9546584256
 H        -3.9751850666       -5.4898179199       -4.8320471015
 H        -7.2213919775       -6.2318356914       -3.6674618379
 H        -7.4193072420       -7.2752633908       -2.3482610712
 H        -7.8897698992       -8.9728815442       -3.9834527033
 H        -6.1570293151       -9.0116308616       -3.8779391676
 H        -8.5623082815       -9.1144758736       -7.8119577601
 H        -7.7479970218      -10.2643334026       -8.8103761804
 H        -9.3517488267       -9.1724243592      -10.1203999001
 H        -7.6973239156       -8.7386014130      -10.8066614533
 H       -12.1919967428       -6.7695966631       -8.1750338397
 H       -11.9538359481       -5.5753545167       -6.9393356902
 H       -10.5999473205       -6.8275050066       -5.5060258772
 H       -10.2065375168       -7.9832090823       -6.5405880467
 H       -12.8782896749       -9.3364411113       -2.0335769618
 H       -12.6795257036       -7.5606781720       -2.2633561318
 H       -10.2644236010       -8.3604656426       -1.1163292340
 H       -11.4157118620       -9.2853741154       -0.1275163782
 H       -10.4446488916      -10.0272337945        2.5946278350
 H        -9.2223387244       -8.9181380674        3.2527247054
 H        -9.2749165251       -8.9830509591        1.5544511242
 H        -9.3373713206       -5.4666768621        0.7416293672
 H        -8.8579086808       -7.1638834093        0.1908814906
 H        -8.5164082281       -6.5280183009        1.8012524422
 H       -10.7426424688       -5.3618308825        2.8217764099
 H       -12.4109921128       -5.7439608009        2.0730427710
 H       -11.2197365487       -4.7499840115        1.2858055499
 H       -13.0718758145      -10.8581242316       -3.6505029798
 H       -13.9169976504      -10.5049890832       -5.2027421209
 H       -14.1379494243       -9.3371376206       -3.9630578742
 H       -10.0729142418       -9.8403079190       -5.4214467444
 H       -11.4980710618      -10.2017649225       -6.5165653645
 H       -11.3159738183      -11.2335919729       -5.2085710057
 H       -11.0415487580       -5.0501211863      -10.9499004212
 H        -9.2269022781       -4.8793130553      -11.0260278845
 H       -10.1211612048       -4.2179207248       -9.7435111250
 H       -10.9819854858       -7.5183899471      -11.2344037656
 H       -12.0753629299       -6.9541147289      -10.0066266304
 H       -11.0632170874       -8.3461198852       -9.6470248511
 H        -4.6476532925       -7.2241937867       -6.0177223930
 H        -3.9707437668       -8.3342803913       -7.1103076031
 H        -4.3978192226       -8.9391961925       -5.4033950768
 H        -5.7854801787      -10.4576057954       -5.2758508758
 H        -5.6435302889      -10.7263917598       -7.1452809180
 H        -7.1534514450      -10.6772534618       -6.2492774930
 H        -3.2334664313       -5.0983772233       -0.8920850836
 H        -2.8826771078       -6.0366132068       -2.3291382452
 H        -3.4918265919       -6.8250442875       -0.9057283389
 H        -5.3819148767       -4.3433558196       -0.4998328934
 H        -5.9071837922       -6.1121379441       -0.1927058080
 H        -6.8054127188       -4.9331965112       -1.2812558512
 H        -6.0647657509       -1.0403547085       -4.7298896517
 H        -6.1319222723       -0.1266946449       -6.1653974909
 H        -4.5911266618       -0.7650124470       -5.7898957544
 H        -7.9602451157       -3.5477544969       -6.3585883307
 H        -8.2081870630       -1.7536129917       -6.7655468067
 H        -7.8786021586       -2.2998000823       -5.2200317972
 H        -4.6677633749       -2.1975625453      -13.1222066159
 H        -3.8777303308       -0.9665292975      -13.9836759385
 H        -4.9081629591       -0.5833674376      -12.6134922793
 H        -2.3473966130       -3.3909011287      -12.8204618258
 H        -1.3669664760       -2.5636673708      -11.6495261746
 H        -1.4484483951       -2.0593112487      -13.4729905830
 H         2.4335803829       -0.6705217566      -14.0600575458
 H         2.6667180244        0.4834585690      -12.6352765298
 H         3.9351135931        0.4513153406      -13.8653323519
 H         3.1369518763        2.9184340800      -12.8438144443
 H         2.3910240435        3.6920318547      -14.2668165167
 H         3.8828314522        2.8618553930      -14.3882914569
 H         6.3645498302        1.6047948395      -19.8874843552
 H         6.7605592747       -0.0295964903      -20.0536724633
 H         8.0620781840        1.1011754033      -19.5292824107
 H         8.4031710600       -0.7295863974      -17.9864952386
 H         6.7089067976       -1.2622439334      -17.6097316408
 H         7.7192598924       -0.4046387653      -16.3555127164
 H         9.1604853638        5.6925118524      -14.9952369559
 H         8.8449859427        7.4926630134      -14.6537552823
 H         8.5282247682        6.9630942822      -16.1803079558
 H         5.9599373075        5.2766021519      -13.3177712527
 H         6.8457925044        6.7375625896      -12.7738001411
 H         7.4856363520        5.1718459318      -12.8568971109
 H         2.7340639743        4.7024985020      -18.6167775837
 H         3.6583780464        4.5259810842      -17.1618505533
 H         4.3669873202        5.2186658898      -18.5407641366
 H         3.4962873954        8.6934160284      -18.0168231704
 H         3.4931735671        7.5855605894      -19.4610096071
 H         4.7441063875        7.8357240093      -18.2595151739
 H        -3.4656664877        6.4717972378      -16.2678064560
 H        -3.8006782054        8.0998243885      -15.7736373650
 H        -3.9354303745        6.7651069170      -14.6037873349
 H        -1.4121155191        8.4380119851      -12.9100732946
 H        -3.0690911222        8.4669642390      -13.2567260421
 H        -1.8584491968        9.4550528382      -14.0312993104
 Na        0.6971882095        4.3624257481      -15.8356863785
 Na       -7.2700881853       -5.1052704882       -7.8637321845
