232

 C        -1.4795686796        5.5345337334      -13.1308420691
 C        -1.5623544554        6.0094954156      -14.5475692073
 O        -1.4135855103        5.1730775715      -15.4323983707
 C        -1.8674917038        7.5762223947      -14.8980940016
 C        -0.7214940020        8.1560838097      -15.8266376408
 O         0.1866958307        8.7481114550      -15.2749487796
 C        -0.8983972879        8.0394841674      -17.4122081666
 C         0.3888298464        7.9325395970      -18.2587951156
 C         1.2769266307        6.6196483714      -17.9823026995
 O         0.7446894247        5.4907543430      -17.7994275593
 C         2.8272968838        6.5960436708      -17.6839988502
 C         2.9846141558        6.7754551968      -15.9887890637
 O         2.5879370108        5.8473689638      -15.3104456180
 C         3.6187269726        8.0260399805      -15.4522836755
 C         4.7882993088        7.6540473888      -14.5548090027
 C         6.0056528451        7.2682941371      -15.3671513638
 O         6.2689256565        7.8232951337      -16.4096170031
 C         6.9808760898        6.1476346957      -14.8415427988
 C         6.6667761490        4.8142171206      -15.6362334468
 O         6.0588323726        3.9034027922      -15.1245859789
 C         7.3653654324        4.6019440758      -17.0109512996
 C         6.9371245946        3.3524655978      -17.8503712386
 C         7.3972036606        2.0029171996      -17.3733569414
 O         8.3184565224        1.8395941277      -16.5898728374
 C         6.7537109089        0.6565728134      -18.1212879703
 C         5.2378202333        0.7639509459      -17.8478266800
 O         4.5842415284        1.6441346159      -18.4257827836
 C         4.4498021736       -0.3071456678      -16.9317650250
 C         2.8817091835        0.1290930316      -16.8338853274
 C         2.5298347277        1.4186329479      -16.0045592240
 O         2.2423097271        2.4393106668      -16.6294166108
 C         2.3417174295        1.4556050090      -14.4883812670
 C         0.7209869444        1.5359525139      -14.2078206105
 O         0.0606758759        2.4151642240      -14.6405120960
 C         0.0688490237        0.2900474618      -13.4235740226
 C        -1.4389001783        0.6751365940      -13.1430545956
 C        -2.2890228663        0.1105032607      -11.9650173504
 O        -2.6882309552        0.9478054971      -11.1233522133
 C        -2.8811347676       -1.2698547270      -11.9986171441
 C        -3.5171174811       -1.6595388133      -10.5976003897
 O        -2.7276605379       -2.2969071261       -9.8998735626
 C        -4.7818683742       -0.9983035918      -10.0345943133
 C        -5.0899725058       -1.0003439063       -8.4911086396
 C        -5.7639977059       -2.2374199159       -8.0281561819
 O        -6.1943786426       -3.0892767037       -8.7655062294
 C        -5.9851152750       -2.3107618598       -6.4542192758
 C        -5.2581298767       -3.6054747164       -5.9810961712
 O        -5.6279403477       -4.7140906463       -6.3044102322
 C        -3.9792721248       -3.4793139497       -5.2091055940
 C        -3.8415568533       -4.6220707926       -4.1483074142
 C        -4.9197513718       -4.3294350175       -3.0940300764
 O        -5.5672729970       -3.3138629992       -3.0146087414
 C        -4.9103463149       -5.5830400986       -2.1053339552
 C        -5.3720444590       -6.8146296859       -2.8754857423
 O        -4.6059835542       -7.6076273702       -3.2888071251
 C        -6.8594641839       -7.0454051168       -3.2177646125
 C        -7.0905254073       -8.3240759821       -4.1134641587
 C        -7.0496776453       -7.9148929188       -5.6413397409
 O        -7.6440951941       -6.9299495656       -6.0060611270
 C        -6.1504066473       -8.8457686214       -6.5885662147
 C        -6.5256839435       -8.4848087435       -8.0707354030
 O        -5.9007151285       -7.7199116729       -8.7946358169
 C        -7.8105739858       -9.1804909289       -8.5082387469
 C        -8.3091761518       -8.6213674997       -9.9362960973
 C        -8.6154840108       -7.0549729973       -9.8180172015
 O        -7.6778102069       -6.2990723541       -9.8411953428
 C       -10.0749112776       -6.4428873449       -9.5538667196
 C       -10.2517666020       -6.0131459768       -8.0345854281
 O        -9.4265724467       -5.2230024671       -7.6077132361
 C       -11.5039046749       -6.2605886529       -7.2829853913
 C       -11.1420510061       -7.3546716081       -6.2121459617
 C       -12.3940536805       -7.9367083949       -5.5726755032
 O       -13.4850271311       -7.4616580473       -5.6416024986
 C       -12.1162747517       -9.2970728859       -4.7557254891
 C       -11.3475833101       -8.6322748564       -3.5020058962
 O       -10.2485195548       -8.1681401313       -3.7415498251
 C       -12.1109527360       -8.4756169772       -2.2092713753
 C       -11.3728761887       -8.5044752151       -0.8291910862
 C       -11.6676741497       -7.2389898653        0.0627043018
 O       -12.6447513775       -6.5549159534       -0.1911709619
 C       -10.8170939265       -6.6988931889        1.2398429430
 C       -10.8725202721       -7.8932395068        2.3101566342
 O       -11.5914325777       -7.6325752313        3.2348133910
 C        -9.9782799703       -9.1605814819        2.2174451253
 C        -9.3319249911       -6.6888146710        0.8179826030
 C       -11.3550466138       -5.4370249961        1.8432560337
 C       -13.4884362368       -9.9605934857       -4.3728187860
 C       -11.1426593151      -10.3301520122       -5.5294379995
 C       -10.2090767540       -5.0530220528      -10.2852258909
 C       -11.1726728746       -7.4218676315      -10.0743479407
 C        -4.6580058134       -8.3127890539       -6.4419436295
 C        -6.4249399743      -10.3631020975       -6.3153332554
 C        -3.5171738422       -5.9681371193       -1.4835948449
 C        -5.9868190040       -5.2756320502       -0.8615194009
 C        -5.7912140607       -1.0215946650       -5.6420084204
 C        -7.5006859394       -2.5805872333       -6.3892091444
 C        -4.0159974802       -1.2883623634      -13.1119651798
 C        -1.8088035397       -2.3303774321      -12.5466846884
 C         2.8683072876        0.2024238228      -13.7292888568
 C         2.8073352002        2.8123104438      -13.9209647563
 C         6.9825319803        0.7749847823      -19.6246159062
 C         7.4353865856       -0.5707937135      -17.4857015810
 C         8.4715674218        6.6714778067      -15.0846016937
 C         6.7865064347        5.9246467465      -13.3256935661
 C         3.5303112749        5.2622723603      -18.0193048099
 C         3.6478933462        7.7678087047      -18.3459667657
 C        -3.2047901371        7.4394393371      -15.7019726029
 C        -1.8857040180        8.3769778178      -13.6419872044
 H        -1.3808888591        6.4542864636      -12.5811095263
 H        -0.6603092265        4.8683844613      -12.8707864969
 H        -2.4520443123        5.2004891971      -12.9114537992
 H        -1.5598350432        8.7890405543      -17.8617233661
 H        -1.4985248135        7.0710263689      -17.6103429099
 H         0.9985021866        8.8566532887      -18.0577699866
 H         0.1932108860        8.0127820918      -19.3452293068
 H         2.7249037248        8.5059106119      -14.9385928434
 H         3.9933901151        8.6866880067      -16.2367551525
 H         4.4641816575        6.7685745789      -13.9631701009
 H         5.0434825226        8.4009339185      -13.8313265386
 H         8.4492305742        4.7175200536      -16.8425760600
 H         7.1261560111        5.4764500811      -17.5552922959
 H         7.1973345107        3.5604143625      -18.9166970301
 H         5.8383440415        3.3750711191      -17.8942023789
 H         4.9239642752       -0.2533780721      -15.9275265051
 H         4.5990043454       -1.3294616016      -17.2327059230
 H         2.3131712202       -0.7811424072      -16.4200333222
 H         2.4078611298        0.4359195008      -17.7757075349
 H         0.4818147900        0.3082396170      -12.3690928005
 H         0.1828543306       -0.6042436567      -13.9937894730
 H        -1.9841336330        0.5581049379      -14.1134164538
 H        -1.5166268406        1.7679545434      -12.9250746781
 H        -5.5640214324       -1.5292664397      -10.5502591860
 H        -4.8506123499       -0.0365075085      -10.5316653890
 H        -5.8715821754       -0.2107691799       -8.4028663516
 H        -4.1356878697       -0.8590266577       -8.0177948689
 H        -3.9813140393       -2.5755022456       -4.6040656157
 H        -3.1485597810       -3.5828994423       -5.8514208168
 H        -2.9072723976       -4.4929054828       -3.6900075986
 H        -3.9471138391       -5.6451708045       -4.5823194186
 H        -7.3274583490       -6.1883352733       -3.6414054591
 H        -7.5142827216       -7.3084256616       -2.4272418935
 H        -8.1673011254       -8.6954624134       -3.9810927404
 H        -6.4902222085       -9.1677936852       -3.6969452735
 H        -8.5029400824       -9.3115864447       -7.6059222467
 H        -7.5544208614      -10.2531204563       -8.7442746626
 H        -9.1442832674       -9.2489837138      -10.3264651775
 H        -7.4180479702       -8.7275184605      -10.6040539207
 H       -12.2454106632       -6.5847299208       -7.9917737856
 H       -11.9502034578       -5.4077105143       -6.7685585425
 H       -10.4337843908       -6.9167861038       -5.5164325447
 H       -10.4137759103       -8.0640984334       -6.6147419418
 H       -12.8431185592       -9.2565425740       -2.1616443067
 H       -12.5128076667       -7.4230536287       -2.3828753552
 H       -10.3059365140       -8.6691039361       -0.9500279962
 H       -11.7234195827       -9.3617192142       -0.2468627641
 H       -10.3729333248       -9.8347245242        2.9895329202
 H        -8.9701073725       -8.8508632924        2.4431617199
 H        -9.8078042853       -9.5583132984        1.1479520947
 H        -9.0241575815       -5.6635540022        0.5213754607
 H        -9.0065471341       -7.4426828016        0.0781965671
 H        -8.6261063510       -6.7580044401        1.6432154338
 H       -10.8901005223       -5.2640268283        2.7411655307
 H       -12.4242806996       -5.6176846697        1.8189240102
 H       -11.1864289047       -4.5667938942        1.1839843090
 H       -13.3545555821      -10.8090549932       -3.6556412218
 H       -14.0032412133      -10.3670509024       -5.2719447499
 H       -14.2351772486       -9.2427431989       -4.0452335631
 H       -10.1215706571       -9.9200920886       -5.4497455557
 H       -11.4389916338      -10.4242014668       -6.5485640418
 H       -11.3092457164      -11.3721756772       -5.1317976524
 H       -11.2413029297       -4.9351937009      -10.4110836973
 H        -9.6563616396       -5.1039131964      -11.1765322411
 H        -9.7850781413       -4.2285880608       -9.7116317245
 H       -10.9882758337       -7.4705739180      -11.1761420207
 H       -12.1799091101       -6.9447863331       -9.8104239578
 H       -11.0083684441       -8.3291499799       -9.5458230404
 H        -4.6663924826       -7.2940900354       -6.8025318299
 H        -3.9920173523       -8.7630113814       -7.1318766548
 H        -4.4207586693       -8.3860881401       -5.4274410295
 H        -6.3912100638      -10.4890028047       -5.2508004556
 H        -5.8555592366      -11.1085752760       -7.0001114386
 H        -7.4285579964      -10.5788300863       -6.5255438441
 H        -3.1122515065       -5.1663125687       -0.8767277153
 H        -2.7539612986       -6.2993198000       -2.2044524753
 H        -3.5997508675       -6.7602750232       -0.7339596893
 H        -5.4946176526       -4.5657885862       -0.2170103482
 H        -6.2505417609       -6.1821347022       -0.3990112395
 H        -6.8451247795       -4.7142950977       -1.2986025308
 H        -6.1197748859       -1.1592257261       -4.6103656311
 H        -6.3496078270       -0.2202800140       -6.0886400707
 H        -4.7760406823       -0.6686839937       -5.7446494702
 H        -7.7885385824       -3.6131969989       -6.4641611759
 H        -8.0403381051       -1.8661650374       -7.0213699893
 H        -7.8197027897       -2.2690867878       -5.3572400060
 H        -4.6591606008       -2.1381233660      -12.9204953592
 H        -3.5788048918       -1.4598292388      -14.0694622016
 H        -4.6075500051       -0.4365904955      -13.1568835627
 H        -2.1710511440       -3.3548688741      -12.6761292180
 H        -0.9899741055       -2.4485781996      -11.8335141286
 H        -1.4769223438       -1.9919851874      -13.5737878469
 H         2.1832989309       -0.6346792602      -14.0048777022
 H         2.8227035514        0.4553042202      -12.6873477829
 H         3.8482445218        0.0194208502      -13.9662324986
 H         2.9844514073        2.7088911818      -12.8435879783
 H         2.1201334988        3.6520842966      -14.0277674024
 H         3.7931040534        3.1867472175      -14.2728019720
 H         6.4882956875        1.7348427107      -19.9937051285
 H         6.4015492232        0.0441837056      -20.1099003277
 H         8.0030830754        0.6403188883      -19.7906189981
 H         8.4831342381       -0.5135031256      -17.7740141524
 H         6.9933416891       -1.4900265968      -17.7947301351
 H         7.4391229987       -0.3636739235      -16.3726456938
 H         9.0718085755        5.8063325180      -14.9521111403
 H         8.8004361379        7.4718010915      -14.3851597773
 H         8.6138478264        7.1248322352      -16.1029846327
 H         5.7893286960        5.5768166011      -13.0685157095
 H         7.1005382385        6.7080212364      -12.7548117913
 H         7.3970542479        5.1222088819      -13.0079717680
 H         3.0446415779        4.5751324720      -18.7636424099
 H         3.6399669714        4.7328339095      -17.1474786396
 H         4.5480910880        5.3834534596      -18.3033092687
 H         3.2536422354        8.7300765655      -18.0130171782
 H         3.8292961531        7.6110030367      -19.3793813356
 H         4.5509002024        7.9247603213      -17.8668366484
 H        -3.1183908882        6.5226742217      -16.2766229081
 H        -3.4568957278        8.2371164552      -16.3958133614
 H        -4.0290893343        7.2942699145      -15.0109989565
 H        -1.0554983149        8.4622762639      -12.9798347506
 H        -2.7956287524        8.2357514403      -13.0034579006
 H        -1.9065991285        9.4502509591      -13.9389912270
 Na        0.7973680611        4.3048758706      -15.9140500187
 Na       -7.1285545334       -5.1247904090       -7.9205005043
