232

 C        -1.6677509564        5.6036464818      -13.2969239650
 C        -1.4357864221        6.2247757299      -14.6873729061
 O        -0.9581317210        5.7004403631      -15.7024135706
 C        -1.7938479144        7.7178923547      -14.8956159639
 C        -0.6495935050        8.0770957779      -15.9029899030
 O         0.4867303953        8.1638553309      -15.4358981067
 C        -0.9827720187        8.1443917430      -17.3411707656
 C         0.2895416110        8.0796780471      -18.1550097114
 C         1.1568502756        6.8004503955      -17.7917956015
 O         0.5084524030        5.7173742880      -17.8554174682
 C         2.7189440510        6.7249774192      -17.5730248115
 C         2.7900572486        6.7360753494      -16.0082376436
 O         2.1906746962        5.8167431433      -15.4362858619
 C         3.4888491960        7.8849330012      -15.3860873912
 C         4.5816263378        7.3253852413      -14.4252086681
 C         5.7686933716        6.8652627158      -15.3428436435
 O         5.7511774484        7.1969701734      -16.5103723486
 C         6.9665064456        6.1065117889      -14.6613490158
 C         6.6727917212        4.7021814100      -15.3288838170
 O         5.7544068088        4.0440073554      -14.9111687281
 C         7.3688617968        4.3509586990      -16.6484124460
 C         6.6616864644        3.3027319037      -17.5525663663
 C         7.3130180366        2.0025241091      -17.4374658229
 O         8.4344721611        1.8210911305      -16.9524834110
 C         6.6560717444        0.8387641450      -18.2625104592
 C         5.0824233606        0.8573561409      -18.0388532034
 O         4.3188782689        1.5216922280      -18.6967486803
 C         4.4905549631       -0.0301935134      -16.8794646181
 C         2.9622147272       -0.0177959277      -16.8485119500
 C         2.5337541907        1.1424052147      -15.9541748671
 O         2.3175533429        2.1638622737      -16.5137752432
 C         2.3470057838        1.1611489795      -14.3738842425
 C         0.8956676789        1.3795910410      -14.1997104572
 O         0.2628774689        2.2182612607      -14.7869152523
 C         0.2263100981        0.4853526561      -13.0548459437
 C        -1.3711775037        0.6927457575      -13.0319361869
 C        -2.1458225777        0.1546109601      -11.8628573398
 O        -2.1986462126        0.8696812096      -10.8604714076
 C        -2.7632458769       -1.2211206929      -11.9389178001
 C        -3.3301797313       -1.6413612208      -10.5022067810
 O        -2.7182328923       -2.1959574152       -9.6326505164
 C        -4.7287670866       -1.0811333663      -10.2630498997
 C        -5.1687849243       -1.2111475253       -8.7803138472
 C        -5.6895922307       -2.4438923649       -8.1682643992
 O        -6.0550210871       -3.4287624423       -8.7668323833
 C        -5.8942206080       -2.4411614757       -6.5825174553
 C        -4.9529560419       -3.5861990482       -5.9155198861
 O        -5.0175148275       -4.7274179130       -6.3518542290
 C        -3.7737718743       -3.2956975016       -4.9875389859
 C        -3.6253612950       -4.3425564024       -3.8409294271
 C        -4.8446677381       -4.2135217173       -2.8278084430
 O        -5.7214355342       -3.4108970135       -3.0756235093
 C        -5.1366227149       -5.4144315955       -1.9505357557
 C        -5.4796776284       -6.5748274481       -2.9944178080
 O        -4.5880766622       -7.2810512117       -3.3783583578
 C        -6.9345430794       -6.9013487635       -3.2239082251
 C        -7.2248033603       -8.1265002835       -4.1264583473
 C        -6.9921750149       -7.8294424803       -5.6072642193
 O        -7.1234332582       -6.7116553460       -6.0205666497
 C        -6.3037456238       -8.9458142356       -6.5265820591
 C        -6.6978364650       -8.5414607161       -7.9341190518
 O        -5.9359291947       -7.7992503701       -8.5554647597
 C        -8.0220243657       -9.0101207193       -8.5438603671
 C        -8.3172123519       -8.2818858448       -9.9059322069
 C        -8.6560206930       -6.8144914945       -9.9291388481
 O        -7.8431167595       -5.9891716378      -10.1504932339
 C       -10.2375185066       -6.4268720365       -9.5642559702
 C       -10.1784528561       -5.9213677573       -8.0494376969
 O        -9.2111302791       -5.3476726922       -7.6640970454
 C       -11.3860700035       -6.1540168629       -7.1267298568
 C       -11.3156633347       -7.5477060214       -6.4350856899
 C       -12.4832991964       -7.8976084842       -5.5460300020
 O       -13.5129720381       -7.2428334892       -5.5321772182
 C       -12.3904860655       -9.2189383473       -4.6743315455
 C       -11.4958637265       -8.8639290811       -3.4304535200
 O       -10.2654295621       -8.9820226126       -3.4691744489
 C       -12.3018445526       -8.4928671339       -2.1659802804
 C       -11.2543638289       -8.0784688510       -1.1232077081
 C       -11.6858355697       -6.9187993300       -0.1170049443
 O       -12.8447997584       -6.4771851873        0.0142886621
 C       -10.4500585963       -6.5993890196        0.8353483215
 C       -10.6797832869       -7.4710432038        2.1757228874
 O       -11.0961749203       -7.0915530433        3.2747492970
 C       -10.3496365826       -8.9725953580        2.0784851884
 C        -8.9939927600       -6.7931084878        0.2637382681
 C       -10.8605597088       -5.1413084605        1.3812746486
 C       -13.7237203383       -9.8540519532       -4.3060662655
 C       -11.5222009052      -10.2764235927       -5.4287442200
 C       -10.7150415416       -5.2025070235      -10.4246436671
 C       -11.3032449164       -7.5486420209       -9.7738081993
 C        -4.7399570853       -8.8165284719       -6.3434222770
 C        -6.9823872926      -10.2811455533       -6.0963274851
 C        -3.8744866768       -5.8269531492       -1.2285878850
 C        -6.2266125919       -4.9714711326       -1.0160601876
 C        -5.5212764698       -1.0044260658       -6.0994163819
 C        -7.3335892644       -2.8044231407       -6.1835453067
 C        -3.7241081508       -1.4642682210      -13.1402904486
 C        -1.5896534747       -2.2310719366      -12.1695805243
 C         2.9107786967       -0.2026583933      -13.7457384353
 C         3.1318130785        2.3816492437      -13.8252361986
 C         7.0005814862        1.0814743624      -19.8053701774
 C         7.3325473016       -0.4769496191      -17.6865763837
 C         8.3155343464        6.7414039772      -15.0219455755
 C         6.8312120296        6.0054471115      -13.0876185783
 C         3.1076115231        5.2565660239      -18.1521608997
 C         3.5259697552        7.8152712766      -18.3715353841
 C        -3.2766991612        7.6471997260      -15.4810011768
 C        -1.6472220596        8.5656929530      -13.6192189302
 H        -1.1719481709        6.1138940863      -12.4787833169
 H        -1.3473045442        4.5724572388      -13.3799173333
 H        -2.6905683108        5.6956042343      -13.1010944922
 H        -1.7162310393        8.9223047605      -17.6930894637
 H        -1.5105506072        7.1809268344      -17.6343440365
 H         0.9047462249        8.9919278726      -18.0733842179
 H        -0.0365819810        8.0184229660      -19.1895403331
 H         2.8715264833        8.6043133918      -14.8053346501
 H         3.9944054798        8.4452619940      -16.1584661027
 H         4.0654983323        6.5620759414      -13.8349747623
 H         4.8209975416        8.1316556633      -13.7797761047
 H         8.3721720183        3.9135204292      -16.3563945304
 H         7.5719160196        5.2840309650      -17.1293655504
 H         6.4817305454        3.6622792934      -18.5582320450
 H         5.6816102459        3.1506718142      -17.2030367890
 H         4.9441798549        0.4440673664      -15.9772210293
 H         4.8369449929       -1.0722480863      -16.9176801158
 H         2.5857635172       -0.8793560228      -16.3412082799
 H         2.5129370686        0.0681833319      -17.8914752652
 H         0.6582724639        0.8883847762      -12.0547262665
 H         0.4450005579       -0.5321107052      -13.3200274851
 H        -1.7508635059        0.4661038313      -14.0060065104
 H        -1.6426401851        1.7966763866      -13.1374870519
 H        -5.3378677935       -1.8439327544      -10.8150052209
 H        -4.8853297983       -0.1413920119      -10.8536170795
 H        -5.9748379762       -0.5128404361       -8.6836891645
 H        -4.3179350573       -0.9665141112       -8.2270785550
 H        -4.0246110222       -2.3649020689       -4.4345649886
 H        -2.9346507090       -3.2230986169       -5.6368557356
 H        -2.6601551041       -4.1943320141       -3.3660104990
 H        -3.6690520171       -5.4232850182       -4.2366659475
 H        -7.6307807767       -6.2638484643       -3.6530689417
 H        -7.3644371057       -7.1347293215       -2.3285969787
 H        -8.3712496855       -8.4452133816       -3.9925291586
 H        -6.6468692632       -9.0007663382       -3.8927196359
 H        -8.8929819356       -8.8744896428       -7.8080253254
 H        -7.9042719034      -10.0974796902       -8.6669550008
 H        -9.2012831602       -8.7558221952      -10.3977102197
 H        -7.4466674593       -8.3849213276      -10.6024983969
 H       -12.3981947941       -6.0034601102       -7.4697627286
 H       -11.2535232532       -5.3690794515       -6.3439436450
 H       -10.3662115037       -7.6042982083       -5.8958792771
 H       -11.1304569636       -8.3117994899       -7.2138367471
 H       -12.8942386547       -9.3510383652       -1.8161285898
 H       -12.8430344245       -7.5766243950       -2.3322901119
 H       -10.3533412207       -7.6623226817       -1.6269470196
 H       -10.8274960060       -8.9377772584       -0.5382706883
 H        -9.2636601402       -9.0573791779        2.1254979956
 H       -10.8413732154       -9.4582661755        1.2498889728
 H       -10.8077275602       -9.4481687577        2.9378554821
 H        -8.8345050939       -6.4680242105       -0.8095055175
 H        -8.8301733206       -7.9732658332        0.1591716313
 H        -8.1480734085       -6.3664439736        0.8320993863
 H       -10.0555906516       -4.8820451728        2.0080257279
 H       -11.7598408288       -5.2106439696        2.0378957729
 H       -11.0381473585       -4.3931267424        0.5826958031
 H       -13.4531664578      -10.6000088710       -3.6008711702
 H       -14.3363661549      -10.3267487565       -5.1743077580
 H       -14.4133126903       -9.1343871909       -3.7966219118
 H       -10.5961472792       -9.7911210180       -5.6425532450
 H       -11.9787290618      -10.5650704969       -6.3744867018
 H       -11.4641945594      -11.1643666057       -4.7646450117
 H       -10.7276030926       -4.3514826960       -9.7696747311
 H       -11.6743934325       -5.4491919897      -10.8187480047
 H       -10.0135215375       -5.0252271551      -11.2656455067
 H       -11.3488095050       -7.7299476705      -10.8116314634
 H       -12.2762795016       -7.2651802298       -9.3312800466
 H       -10.9299803620       -8.4211571473       -9.2384932149
 H        -4.4463283416       -7.8663510297       -6.8249373917
 H        -4.2797616716       -9.5856100506       -7.0266781369
 H        -4.5191720082       -8.7769701799       -5.2816782797
 H        -6.4624047595      -10.6902638832       -5.1843814486
 H        -6.9050333433      -11.0194212730       -6.8878296222
 H        -8.0571729978      -10.2376608887       -5.9686748804
 H        -3.4549233207       -4.9825028684       -0.7009388925
 H        -3.1268816683       -6.4019272279       -1.8322467480
 H        -4.0719066563       -6.4746104546       -0.3596184044
 H        -5.9635004434       -3.9850594188       -0.6604571240
 H        -6.2945455565       -5.7082397604       -0.2171192124
 H        -7.1983910955       -4.9959328910       -1.6150813439
 H        -5.7779512551       -0.8024416975       -5.0477274901
 H        -6.0214716951       -0.3010651133       -6.7455064721
 H        -4.4545531850       -0.8070490010       -6.1581164106
 H        -7.6752376518       -3.6238718299       -6.8026400447
 H        -7.9966845513       -2.0076768604       -6.3494194970
 H        -7.3009398492       -3.1589614672       -5.1419585896
 H        -3.7724496821       -2.5617877211      -13.2519659181
 H        -3.4151086019       -1.0694553587      -14.0867240469
 H        -4.7046772351       -1.1185399245      -12.9836828927
 H        -2.1039133867       -3.1850758053      -12.1487809099
 H        -0.7386457031       -2.2150138368      -11.4777717063
 H        -1.0623809087       -2.0473637905      -13.1308420055
 H         2.4556731148       -1.0237181166      -14.2724117444
 H         2.7390700879       -0.3073517883      -12.6304765967
 H         4.0047275497       -0.2246865854      -13.8968913479
 H         2.8722244141        2.6082206309      -12.8253996172
 H         2.9017839563        3.3474890641      -14.3261769044
 H         4.2464036630        2.2901212081      -13.8863360469
 H         6.3702086492        1.9828271707      -20.1213040551
 H         6.7900246988        0.2291654937      -20.3932862294
 H         8.0261770575        1.2825955324      -19.7958782343
 H         8.2055909598       -0.6954763086      -18.2010708605
 H         6.6294876230       -1.3416913538      -17.7639793419
 H         7.4993281078       -0.3523321333      -16.5552264288
 H         9.1341441764        6.1177770383      -14.7827342570
 H         8.4207961922        7.6194956926      -14.3420058129
 H         8.3830836165        6.8797210248      -16.1504328332
 H         6.0109516582        5.3764206100      -12.6755024532
 H         6.5784327080        6.9452921124      -12.7073580710
 H         7.7169281564        5.7259145813      -12.7071666615
 H         3.7390541394        5.4265749004      -19.0806791344
 H         2.3149646063        4.6473055095      -18.4068447042
 H         3.7355053517        4.7040703524      -17.4995346499
 H         3.8828264426        8.6577085555      -17.7878455991
 H         2.9994359771        8.0520262639      -19.3108959820
 H         4.3659689984        7.2446208041      -18.7405619683
 H        -3.1867175211        7.1434860605      -16.4068974832
 H        -3.8852954838        8.5527248603      -15.6405649875
 H        -3.8597688851        7.1313520003      -14.7859543541
 H        -0.8692523990        8.1968217845      -12.9805807017
 H        -2.4575855440        8.6423354137      -12.9268562844
 H        -1.4725432251        9.6186609078      -13.8593400303
 Na        0.8107166851        4.0978360169      -16.1541201455
 Na       -6.5938206730       -5.6293583627       -8.0602929977
