232

 C        -2.3219057259        5.5876876504      -13.3835503903
 C        -1.5183604830        6.3239756391      -14.5989825500
 O        -0.6533371644        5.7262569177      -15.1933380969
 C        -1.7917963738        7.8481239605      -14.7352280506
 C        -0.7770211492        8.2566455462      -15.8772844552
 O         0.2553176694        8.7752574439      -15.5483944352
 C        -1.2281302000        7.9170467055      -17.3033039200
 C         0.0145811267        7.7944561703      -18.2257041590
 C         0.9379053556        6.5313897211      -17.9930588893
 O         0.5082398075        5.4335189625      -18.1502446166
 C         2.5577876805        6.7750682233      -17.7235384291
 C         2.6687947650        6.6191227313      -16.1722956179
 O         2.3124427463        5.5745338178      -15.7099332533
 C         3.2759128543        7.7248043567      -15.3489440209
 C         4.3553189781        7.1077227677      -14.3633714906
 C         5.5903991807        6.7502620437      -15.1828123627
 O         5.5589307562        6.9809629896      -16.3547519647
 C         6.6520172713        5.9155596316      -14.4013890299
 C         6.6487132180        4.4907482460      -14.9196970221
 O         6.2174369243        3.6174570440      -14.2013719548
 C         7.1436239954        4.1902709186      -16.3925399931
 C         6.3530663429        2.9453553490      -17.0008180264
 C         7.1876638300        1.7378124028      -17.3636449635
 O         8.2705764412        1.4114279334      -16.9563507831
 C         6.5966304531        0.8849605183      -18.6045668800
 C         4.9631065135        0.7164613375      -18.3276715373
 O         4.1298218538        0.9332130849      -19.1920205835
 C         4.5426079220        0.0308615843      -17.0468639986
 C         3.0450781772       -0.1849643127      -16.7533321114
 C         2.3577601166        1.0604416716      -16.0733706422
 O         1.8428342542        1.9038047724      -16.7922587209
 C         2.2557776222        1.1244414787      -14.4516581869
 C         0.9222103507        1.5855074051      -14.0792492531
 O         0.4229155248        2.5698458502      -14.6735743755
 C         0.2631463434        1.1810991966      -12.8365053333
 C        -0.7158693468       -0.0212733633      -13.0864981082
 C        -1.5465953402       -0.2936049001      -11.8636005924
 O        -1.6866424014        0.5352522551      -10.9929296780
 C        -2.2553975553       -1.6427313308      -11.6773014791
 C        -3.1729969936       -1.6697574713      -10.3440118138
 O        -2.6483786813       -2.0801081014       -9.3316928514
 C        -4.6012757573       -1.1603748540      -10.4304294900
 C        -5.2808377683       -1.1128146898       -9.1004958325
 C        -5.5935060893       -2.3786871321       -8.3711057681
 O        -5.8677752580       -3.3490364949       -9.0489561104
 C        -5.6041334647       -2.4338401475       -6.7539346012
 C        -4.4627607601       -3.6102806952       -6.2296869056
 O        -4.7508993885       -4.7613614098       -6.5177222001
 C        -3.3463238253       -3.3308479913       -5.2914156906
 C        -3.4802194030       -4.1901348357       -4.0368701180
 C        -4.7755168198       -4.1805360702       -3.3458760234
 O        -5.4991068909       -3.2142566400       -3.5696005239
 C        -5.2505323216       -5.0872770801       -2.1928962084
 C        -5.5216767460       -6.3327721062       -2.9171064570
 O        -4.5663816264       -6.9623297879       -3.3799760056
 C        -6.9472221591       -6.7916367471       -3.0398588362
 C        -7.0933586166       -8.0370207807       -3.9307951741
 C        -6.8749307475       -7.7808993566       -5.3997542182
 O        -6.7122706294       -6.6434191697       -5.7151522697
 C        -6.9371102293       -9.0222489961       -6.3814531954
 C        -7.0058518962       -8.4703596578       -7.9028400004
 O        -6.1207991531       -7.6951981373       -8.2464767148
 C        -7.9016432555       -9.0510665101       -8.9576412759
 C        -7.8854379201       -8.1406183675      -10.2203711334
 C        -8.4773132516       -6.7428612586      -10.0046326851
 O        -7.7655176292       -5.7580318545      -10.1812134399
 C        -9.9319188273       -6.4390043375       -9.4998496236
 C        -9.8194019061       -6.4501554490       -7.8408676446
 O        -8.7435630298       -6.2660923126       -7.2374721317
 C       -11.2021579858       -6.5044919665       -7.1313392812
 C       -11.5386403553       -7.8623784980       -6.4971502138
 C       -12.7620575614       -7.7577742749       -5.4800337593
 O       -13.4297694230       -6.7659595651       -5.4136204438
 C       -12.9611798567       -8.9540163230       -4.5401887588
 C       -11.6229943278       -8.9918802149       -3.5534622054
 O       -10.6887972095       -9.7663361179       -3.7682389329
 C       -11.8906972373       -8.1808107139       -2.3360658016
 C       -10.8405939170       -8.0095656092       -1.2594997619
 C       -11.4327948983       -7.0937046931       -0.0943989586
 O       -12.5895475183       -7.1589333568        0.2303198854
 C       -10.2641173357       -6.3768528827        0.7248904257
 C       -10.5336252134       -6.7158709224        2.2535807984
 O       -10.5128906197       -5.8078854510        3.0263720788
 C       -11.2265417102       -8.0845472158        2.4353328562
 C        -8.8522711533       -6.8583812185        0.4365552497
 C       -10.4775625838       -4.8054249931        0.4602824283
 C       -14.3377744297       -8.9446339411       -3.7646347602
 C       -12.9041375506      -10.3063410743       -5.4015763345
 C       -10.3510626414       -4.9680136109       -9.8165279970
 C       -10.9683547930       -7.4778102813       -9.9792872141
 C        -5.4930741372       -9.6824336602       -6.2979144502
 C        -8.1158442836       -9.8895266019       -6.0397549599
 C        -4.0387738647       -5.1576410266       -1.2124076030
 C        -6.3908682306       -4.4930824044       -1.3728094242
 C        -5.4095389350       -1.0233170021       -6.1703982217
 C        -6.9586800796       -3.0323600576       -6.3294201591
 C        -3.1785948167       -1.9561638056      -12.8992975142
 C        -1.2233495230       -2.7561265784      -11.5644647163
 C         2.6309356922       -0.1575489351      -13.7067636613
 C         3.4526041909        2.1469085142      -14.1090062561
 C         6.8898207598        1.7003917420      -19.8978491836
 C         7.2139641100       -0.5003256686      -18.7171202466
 C         7.9870894192        6.5403414902      -14.6865686322
 C         6.4349116571        5.9977275329      -12.8778084754
 C         3.3049332046        5.5764702620      -18.2890905140
 C         2.9685331523        8.0434868525      -18.3836026139
 C        -3.2152893036        8.2611845821      -15.0568756609
 C        -1.2161377043        8.4731595464      -13.4361844354
 H        -2.1868021291        4.4842619056      -13.4118373425
 H        -3.3446195239        5.7415622411      -13.7864541196
 H        -2.3535268267        6.0696070054      -12.3751605236
 H        -1.6993398757        8.8589441141      -17.6286830363
 H        -1.8734969824        7.1042039515      -17.3898906220
 H         0.6462038544        8.6012770478      -17.9042043716
 H        -0.2922959782        7.8813854167      -19.2472630324
 H         2.5241375728        8.0672529145      -14.6878014485
 H         3.7119814731        8.6008764913      -15.8160630476
 H         3.9070612467        6.1724099259      -13.9903010218
 H         4.5418637378        7.8836190441      -13.5932559509
 H         8.2186348753        3.8712675604      -16.4220953876
 H         6.8936507903        4.9397315261      -17.1012169700
 H         5.8975791096        3.3191124940      -17.9552172845
 H         5.5323479867        2.6068361739      -16.3554581544
 H         5.0779286251        0.5779569646      -16.2585369371
 H         5.0267830606       -0.9518591337      -17.0642406937
 H         2.8960636447       -1.0898624614      -16.2792329952
 H         2.6522594092       -0.3066826979      -17.7362703113
 H        -0.2657988143        1.9214630032      -12.2994746031
 H         0.9123128935        0.8611429265      -11.9770237777
 H        -0.2297852733       -0.9300846482      -13.2969704488
 H        -1.5351429948        0.3153097741      -13.7905876984
 H        -5.1897142356       -1.8152142171      -11.0981531368
 H        -4.4390404915       -0.1264644529      -10.8342674157
 H        -6.1684187506       -0.6480161351       -9.1757681060
 H        -4.8209169395       -0.3435208651       -8.5132770418
 H        -3.2926396508       -2.2064448034       -5.0918313949
 H        -2.4055609586       -3.5198957295       -5.7647778349
 H        -2.6127654865       -4.0175519785       -3.3881011024
 H        -3.1650089582       -5.2606949914       -4.2981078578
 H        -7.6235804120       -5.9619579080       -3.3076426775
 H        -7.3493210865       -7.0828286397       -2.0610346526
 H        -8.1417497645       -8.5101603600       -3.7485677142
 H        -6.3712078926       -8.7562889137       -3.6408151348
 H        -8.9140863282       -9.0994536369       -8.5571586614
 H        -7.5627432859       -9.9811020920       -9.2033131809
 H        -8.3756393070       -8.6119841838      -11.0441075040
 H        -6.8973559764       -7.9141651547      -10.5699544151
 H       -12.0281688304       -6.2204341982       -7.7830281205
 H       -11.1099868315       -5.8052598467       -6.2419025235
 H       -10.7201568634       -8.1662317209       -5.8561501862
 H       -11.7586930083       -8.5566392335       -7.3064946329
 H       -12.7628345610       -8.6426679409       -1.8921490501
 H       -12.3418299090       -7.3261909123       -2.6287121451
 H       -10.0142483086       -7.4901437094       -1.7142944095
 H       -10.5154097508       -9.0293602423       -0.9745715954
 H       -12.2500963626       -7.8163183384        2.8427273486
 H       -10.8567083448       -8.7830965702        3.2121372652
 H       -11.1998351499       -8.5768692002        1.5110487505
 H        -8.4293195843       -6.3934483460       -0.4078809181
 H        -8.8345632190       -7.9328128406        0.3260168267
 H        -8.1902950536       -6.6345116660        1.2680386068
 H        -9.7511807351       -4.1857518627        1.0317983418
 H       -11.4911399584       -4.4631086187        0.6721317520
 H       -10.2759292125       -4.7251866020       -0.5812503369
 H       -14.1613369434       -9.7156218159       -3.0374572509
 H       -15.1760490693       -9.2519929319       -4.3555612220
 H       -14.5151481725       -8.0470627497       -3.1988641305
 H       -11.9243697082      -10.2975172095       -5.8432036607
 H       -13.7332574745      -10.0829473295       -6.1197542585
 H       -13.0445177575      -11.2097151803       -4.8022742486
 H       -10.7230511475       -4.8346991795      -10.8530716588
 H        -9.5038713139       -4.2817463215       -9.6406320300
 H       -11.2118175283       -4.7856091518       -9.2027118262
 H       -10.9014342578       -7.5763030423      -11.0532237268
 H       -11.9688256477       -7.2197429563       -9.7664141765
 H       -10.7218323805       -8.4887300873       -9.5644885282
 H        -4.7972889664       -8.9703608677       -6.6483250961
 H        -5.4833601489      -10.6485741225       -6.7732217390
 H        -5.4213283195      -10.0298549988       -5.2676799939
 H        -8.2743790359      -10.2061539471       -4.9871568407
 H        -8.0863330754      -10.6902291980       -6.7126329518
 H        -9.0561050107       -9.2779781195       -6.2138725361
 H        -3.8777372432       -4.2089452415       -0.7350362577
 H        -3.0933689512       -5.3621613239       -1.7533209353
 H        -4.2737129511       -5.8874613393       -0.4393920286
 H        -5.9792414579       -3.6571933387       -0.9062789206
 H        -6.9178974357       -5.1545791563       -0.6629333680
 H        -7.0890822397       -4.0896166136       -2.0611765993
 H        -5.5125700363       -1.0329408040       -5.0783724300
 H        -6.1460713617       -0.3075522231       -6.5573804851
 H        -4.4409226969       -0.6468022095       -6.4884024396
 H        -6.8531289537       -3.7270307720       -5.4406891779
 H        -7.3259942552       -3.6439170603       -7.1407426645
 H        -7.7368159950       -2.2454760830       -6.2152550144
 H        -3.6507853960       -2.8956017043      -12.5857815573
 H        -2.6379488194       -2.1432266941      -13.8081044465
 H        -3.9834489946       -1.1985656903      -13.0584965199
 H        -1.6975398928       -3.7244194843      -11.4824355003
 H        -0.5902460738       -2.6667893490      -10.6646430366
 H        -0.6107863970       -2.8605833009      -12.4523280006
 H         1.9615077485       -0.9644405013      -13.8540270429
 H         2.6094380136       -0.0031875739      -12.6234943335
 H         3.6415128235       -0.6334286990      -13.8996036169
 H         3.4227294071        2.5486519198      -13.1426874574
 H         3.4521176029        3.0199836630      -14.7777910500
 H         4.4648545824        1.7605793068      -14.1585186755
 H         6.4903959941        2.6509480750      -19.7669189828
 H         6.6186127862        1.1597007912      -20.8448428016
 H         8.0188215752        1.8257896176      -19.7967035405
 H         8.2937970700       -0.6529384091      -18.7172228507
 H         6.7841309600       -0.9793725554      -19.5979191500
 H         6.8651686882       -1.0636055639      -17.9121214135
 H         8.7588018888        5.8875619199      -14.3054364046
 H         8.0312475820        7.5435723634      -14.2958355584
 H         8.0795746184        6.6983400467      -15.7427565641
 H         5.4894957154        5.6530035759      -12.4537394653
 H         6.6358457223        7.0964882873      -12.5074940517
 H         7.2481844322        5.4501078796      -12.2625415702
 H         2.8692193654        5.3701403376      -19.2413395012
 H         3.1902706086        4.5947759609      -17.6276243138
 H         4.3933575289        5.8453094602      -18.3062616844
 H         2.8956181463        8.9342112678      -17.7823415633
 H         2.1924378470        8.1909619403      -19.1745261989
 H         4.0030631853        7.8220758192      -18.7027488775
 H        -3.6733492340        7.8314959594      -15.9458593327
 H        -3.1230408492        9.3501391580      -15.2659882697
 H        -3.9327813238        7.9727920579      -14.3225452120
 H        -0.3247703782        7.9054820104      -13.0431772558
 H        -1.9309246745        8.7177545915      -12.6797346187
 H        -0.7037309645        9.3718595913      -13.7847884405
 Na        0.8184651371        3.8117237086      -16.2054149540
 Na       -6.3963672887       -5.4663431092       -7.8053009319
