232

 C        -2.3778985972        5.5737827741      -13.4929188276
 C        -1.5962031224        6.2974858043      -14.5933493019
 O        -0.5793615077        5.8232230182      -15.0932841099
 C        -1.7595042930        7.8589793748      -14.7373276825
 C        -0.8000055662        8.2520473443      -15.8660491867
 O         0.2852812932        8.7996477590      -15.6987321152
 C        -1.1673730201        7.8088976095      -17.2765389410
 C         0.0941465535        7.7564763695      -18.1994470069
 C         0.8763015834        6.4561278563      -18.0863554667
 O         0.4170930915        5.3312611946      -18.2864596188
 C         2.3754240522        6.7451091245      -17.8253385175
 C         2.6453691918        6.6692568052      -16.2250156219
 O         2.4496716974        5.5972283464      -15.6081292019
 C         3.2100499257        7.8135611683      -15.2990461779
 C         4.2394111371        7.1352422075      -14.3022986591
 C         5.5046151014        6.7323144916      -15.1112377396
 O         5.6797314857        6.7373373367      -16.3212198322
 C         6.7620374888        5.9894327570      -14.3400030878
 C         6.6371241266        4.5098011284      -14.8814382008
 O         6.1477817778        3.5554597835      -14.2471108806
 C         7.2241553233        4.1958943345      -16.2831359022
 C         6.3649990243        3.0193152594      -16.9576288234
 C         7.1300064424        1.7719517062      -17.3752219239
 O         8.2117749358        1.4530020725      -16.8793546216
 C         6.4248741971        0.8847666359      -18.5296404702
 C         4.8959459395        0.5968180003      -18.3717895078
 O         4.0523388366        0.9131533207      -19.1702946006
 C         4.4979447068       -0.1853586640      -17.0201347332
 C         2.9603945683       -0.1779015537      -16.8519590908
 C         2.3509828398        1.0079643027      -16.1540261503
 O         1.7545706864        1.8303162061      -16.8017462693
 C         2.3654778116        1.1366627191      -14.5860148827
 C         0.9636738595        1.7266415766      -13.9792355574
 O         0.2547878187        2.4835091057      -14.6045817840
 C         0.3029261481        1.1412249307      -12.7730839924
 C        -0.5216380708       -0.1554180255      -13.1180081005
 C        -1.5559501013       -0.3063736449      -11.8693269274
 O        -1.6343610701        0.5883060093      -11.0702866680
 C        -2.1885302982       -1.8531672888      -11.6135487970
 C        -3.0744170475       -1.6331877138      -10.3043698303
 O        -2.7672906871       -2.1529935460       -9.2087029931
 C        -4.5191802157       -1.2118397721      -10.4964997848
 C        -5.2304266978       -0.9570345054       -9.1252350048
 C        -5.4781061521       -2.3890864143       -8.4295797011
 O        -5.9211263211       -3.3253307225       -9.0406069001
 C        -5.5379887848       -2.4414903535       -6.8736341460
 C        -4.5727778029       -3.5692130413       -6.2717279767
 O        -4.8455246402       -4.6670486933       -6.6051650437
 C        -3.2799667806       -3.3851521764       -5.3828416092
 C        -3.3957717749       -4.2510740275       -4.1342243265
 C        -4.6991863798       -3.8572719088       -3.3405748991
 O        -5.5045322288       -3.0368613881       -3.7049210439
 C        -5.1089665990       -4.8583834519       -2.1814775717
 C        -5.4264044444       -6.3922716416       -2.9360076215
 O        -4.5392529755       -7.0709543871       -3.2998964214
 C        -6.9382774444       -6.9183037382       -3.0282925440
 C        -7.1713839158       -8.1501390013       -3.9222021942
 C        -6.9425058012       -7.7125683591       -5.3995043238
 O        -6.6719106745       -6.5912637672       -5.7340187337
 C        -7.0642937229       -8.9512349355       -6.4014494098
 C        -6.8766490102       -8.4772454489       -7.9346246471
 O        -5.9521300245       -7.7624772680       -8.1556633122
 C        -7.8995793570       -9.0350515864       -8.9341190504
 C        -7.9969594610       -8.1946961141      -10.2030683889
 C        -8.3196324542       -6.7144566911       -9.8957408512
 O        -7.5220064309       -5.7983604031      -10.0267973397
 C        -9.8019359154       -6.3920463596       -9.4069192791
 C        -9.8685944864       -6.5149164285       -7.8532485311
 O        -8.8007372853       -6.4055223922       -7.2244019526
 C       -11.2147964538       -6.5573914651       -7.1393085210
 C       -11.6296963048       -7.9262191904       -6.5404790474
 C       -12.7719642566       -7.6824859399       -5.4538972744
 O       -13.5052002559       -6.7485002840       -5.4121651842
 C       -12.9858269644       -8.9672023546       -4.4757767231
 C       -11.8133874691       -9.1122508437       -3.5253333419
 O       -10.7986161243       -9.6728885317       -3.9137907722
 C       -11.9684281588       -8.2266486928       -2.2947373382
 C       -10.8095304703       -8.0017970718       -1.2893380102
 C       -11.2579695103       -7.1560327841       -0.1295027409
 O       -12.4237005774       -7.1913756980        0.2249932661
 C       -10.2713400236       -6.3678911165        0.6646352720
 C       -10.7544639418       -6.5477377051        2.2132610726
 O       -10.4696044323       -5.7219103908        3.0885036571
 C       -11.3542996050       -7.8879695080        2.7016980924
 C        -8.8517502071       -6.8842958935        0.5530404878
 C       -10.4050821929       -4.8280445607        0.4274408313
 C       -14.3124026004       -8.9339791951       -3.7182888322
 C       -13.0346078738      -10.2163130032       -5.4042959865
 C       -10.1958182194       -4.9600875107       -9.8287472950
 C       -10.8346558168       -7.3552518592       -9.9774072875
 C        -5.7037570131       -9.7757983138       -6.2193111889
 C        -8.1767426410       -9.9521301003       -6.1660694309
 C        -3.9660847684       -5.2409885697       -1.1412515993
 C        -6.3376615562       -4.3995145758       -1.4677062818
 C        -5.5004851639       -1.0827609752       -6.0844595908
 C        -6.9767694888       -2.9068051036       -6.4237901295
 C        -3.1966439764       -2.0567300940      -12.8532093722
 C        -1.1588731403       -2.8780428335      -11.5131644615
 C         2.7960354023       -0.2087063594      -13.8926835186
 C         3.4443197804        2.2579851714      -14.0839293753
 C         6.7069513609        1.7404082689      -19.8413028769
 C         7.2353747659       -0.4395527695      -18.7356838805
 C         8.1972661909        6.5799731291      -14.6920234876
 C         6.4963988172        5.8866077387      -12.8439709967
 C         3.2679368859        5.5976747422      -18.4398295370
 C         2.9446596649        8.1270811714      -18.4161505268
 C        -3.2864278927        8.3851578310      -14.9783625221
 C        -1.2384429959        8.3259230494      -13.3493501732
 H        -2.1637739764        4.4955685276      -13.5179390327
 H        -3.4691778240        5.7710105479      -13.5553533476
 H        -2.0763784298        6.0933257564      -12.5419413582
 H        -1.9692257128        8.4179497626      -17.7992734579
 H        -1.4251023559        6.7607415865      -17.2359876232
 H         0.7284689763        8.5721533692      -18.0083792317
 H        -0.3077984362        7.7403094866      -19.1987138652
 H         2.4004661720        8.2117693293      -14.7058928466
 H         3.8001434139        8.6648749222      -15.6629423020
 H         3.8601804437        6.2691727701      -13.8065983026
 H         4.5609615755        7.9656310155      -13.6432362571
 H         8.2213750679        3.7351687215      -16.1292115908
 H         7.1738629811        5.0272228844      -17.0389855588
 H         5.6767160439        3.4138894334      -17.7075768689
 H         5.8038356279        2.5861075595      -16.1794929172
 H         5.0058717354        0.2479637720      -16.1404649071
 H         4.8575969945       -1.2342160054      -17.0767269643
 H         2.6937015750       -1.0944105998      -16.1914014898
 H         2.5483766696       -0.4235309011      -17.7910408293
 H        -0.4162610871        1.7796681159      -12.2733121986
 H         0.8479824103        0.8566373480      -11.7884061994
 H         0.0603287773       -1.0852032410      -13.0125923453
 H        -1.1509629746        0.0343331907      -13.9991508427
 H        -4.9985066954       -2.0998321570      -11.0122811743
 H        -4.3713523957       -0.2702093544      -11.1370430769
 H        -6.1299414072       -0.3908183958       -9.0856721274
 H        -4.6788790751       -0.2401635258       -8.5665538382
 H        -3.0991842166       -2.4233427673       -5.0095070211
 H        -2.4578880966       -3.5044629223       -6.1242622337
 H        -2.3841134471       -4.1681756451       -3.5817711098
 H        -3.3508588610       -5.3660141787       -4.2153046833
 H        -7.5321589805       -6.1505344867       -3.3508419286
 H        -7.3341734488       -7.1042827729       -2.0525128142
 H        -8.1748498655       -8.5639825051       -3.8069959231
 H        -6.3871313627       -9.0153658991       -3.6686953604
 H        -8.8623403081       -9.2020364170       -8.4352467917
 H        -7.5146789889       -9.9835335109       -9.2332690815
 H        -8.6814448514       -8.5813284067      -10.9430193257
 H        -7.0249911084       -8.1864100206      -10.7107887444
 H       -12.0236342111       -6.3096098726       -7.8761280751
 H       -11.1866353553       -5.8307418893       -6.3033262110
 H       -10.8193136477       -8.4728094594       -6.0669557050
 H       -12.1202623731       -8.4680907608       -7.3410916116
 H       -12.7915797730       -8.6317153103       -1.7352683039
 H       -12.5006972433       -7.3636684375       -2.6377561608
 H        -9.9686978035       -7.5102768549       -1.8109789250
 H       -10.4863287852       -9.0307682989       -0.9989362249
 H       -12.2884157456       -7.8450651338        3.1639984219
 H       -10.7172579936       -8.1478957739        3.5148588563
 H       -11.1538897397       -8.6426277441        1.9349412038
 H        -8.5750120314       -6.4887272105       -0.4443428537
 H        -8.8119732582       -7.9210096730        0.6111947631
 H        -8.0615540050       -6.3945315460        1.1832545085
 H        -9.7745137364       -4.3782158944        1.2607768935
 H       -11.4305037014       -4.5693516701        0.6329257873
 H       -10.1208432458       -4.4717049401       -0.5564422781
 H       -14.3675342872       -9.7732806953       -2.9147038736
 H       -15.1541469777       -8.9903348725       -4.3462897644
 H       -14.3568505573       -7.9717962138       -3.2201429045
 H       -12.0360773623      -10.3261688882       -5.8416612131
 H       -13.8220284462       -9.8705278313       -6.0969659705
 H       -13.3708684642      -11.0711907645       -4.8347377304
 H       -10.9334057151       -5.0054486990      -10.6605592932
 H        -9.2452250629       -4.4526909925      -10.2167917527
 H       -10.7007583275       -4.4015316526       -9.0250512864
 H       -10.7980330061       -7.2735872368      -11.0920464940
 H       -11.8581755454       -7.0995051894       -9.7371263760
 H       -10.7305303310       -8.3565680455       -9.7129476620
 H        -4.8231425267       -9.0426745273       -6.2367622334
 H        -5.5923845609      -10.5436752919       -6.9971766338
 H        -5.8968950897      -10.4314821866       -5.3429410387
 H        -8.1706795612      -10.3601687178       -5.2241953293
 H        -8.1899912055      -10.7044561093       -7.0643483037
 H        -9.1390209404       -9.4235842224       -6.1380717732
 H        -3.6350246824       -4.2827511841       -0.6884864397
 H        -3.1088739141       -5.5513514079       -1.6812766907
 H        -4.3311847310       -5.8603174166       -0.3017218114
 H        -6.1691738306       -3.4955986438       -0.8277256459
 H        -6.8167061994       -5.1917021083       -0.8759634292
 H        -6.9998539207       -4.1419870305       -2.2477317317
 H        -5.4910993062       -1.3681755008       -5.0395784502
 H        -6.3555921181       -0.3992059896       -6.2775651201
 H        -4.6193597694       -0.4754520722       -6.3612625571
 H        -6.8800684220       -3.2519693386       -5.3964733224
 H        -7.3970402377       -3.7579272562       -7.0227938114
 H        -7.7037716817       -2.1269989324       -6.6029695837
 H        -3.3858834413       -3.1089970259      -13.0717262517
 H        -2.6317245055       -1.6473216363      -13.7418683289
 H        -4.1735293654       -1.4722241800      -12.7813761918
 H        -1.5616009648       -3.8496761375      -11.1952099351
 H        -0.5605904695       -2.6118065292      -10.6544498898
 H        -0.6035928187       -3.1095982976      -12.3849683512
 H         2.0936307730       -1.1472335471      -14.0734153531
 H         2.8026895550       -0.1297228922      -12.8102501543
 H         3.7691702543       -0.6032017297      -14.1354289304
 H         3.3127646514        2.3552733393      -12.9744763112
 H         3.1521490444        3.1992857318      -14.4622886066
 H         4.4834346784        2.2336600751      -14.1762851541
 H         6.2640991208        2.7164683800      -19.7404740800
 H         6.3810977324        1.1852920417      -20.7478153142
 H         7.7982485586        1.8681315492      -19.7952644775
 H         8.3246810388       -0.2512034695      -19.0802319979
 H         6.7868123671       -1.1014334704      -19.4368474199
 H         7.3863679071       -0.9613410860      -17.8303582489
 H         8.9291336316        5.8421406722      -14.2379238490
 H         8.3354308180        7.5847536067      -14.3669907503
 H         8.3298932740        6.7142449462      -15.7244877791
 H         5.4780880825        5.5673139383      -12.6795806571
 H         6.7247492980        6.7672589540      -12.2673450873
 H         7.0945921746        5.1241288769      -12.2760285318
 H         2.9890923218        5.6699277686      -19.5039890181
 H         2.9929259717        4.5996011939      -18.0742915610
 H         4.3305670418        5.7667391617      -18.2481046789
 H         2.3789158689        9.0738150628      -18.1251794238
 H         2.8196226627        8.0033787257      -19.5259968978
 H         3.9570679987        8.1376380299      -18.0112602577
 H        -3.8202090174        7.9312508130      -15.8495888782
 H        -3.2962012570        9.4498620348      -15.1108029209
 H        -3.9472842414        7.9742864794      -14.1496892172
 H        -0.3261002804        7.8412516666      -13.1150189708
 H        -2.0590131598        8.1695691281      -12.6447878519
 H        -0.9547007664        9.3243532644      -13.3882015429
 Na        0.8395766424        4.0507053497      -16.2180377532
 Na       -6.4644849959       -5.4043210041       -7.9626600089
