232

 C        -2.6312759182        5.3682094829      -13.7534655960
 C        -1.5287291337        6.1658238901      -14.4693302693
 O        -0.6056703633        5.7086016326      -15.1009632970
 C        -1.6872200063        7.7634129226      -14.5698520065
 C        -0.7946315411        8.1656844997      -15.9117479253
 O         0.1643710805        8.8840411259      -15.8705118403
 C        -1.2295259666        7.5844733640      -17.2048777521
 C        -0.2437863415        7.7137611063      -18.4116615125
 C         0.8772535482        6.6209843000      -18.0416793493
 O         0.4768490641        5.4830199451      -18.1234979524
 C         2.4693033323        6.8046163743      -17.8516397234
 C         2.8349984019        6.5971048468      -16.2601706563
 O         2.5202146315        5.5657168040      -15.7533149875
 C         3.4157344179        7.6735221789      -15.4482273362
 C         4.4389332946        7.3487206357      -14.3281301261
 C         5.6386955117        6.5597930192      -15.0941786701
 O         5.6528360765        6.5147875509      -16.3239144570
 C         6.7434036938        5.9275142464      -14.2344150286
 C         6.6197700344        4.3635567062      -14.7690877478
 O         5.9676110443        3.5971724860      -14.1312740543
 C         7.2352436264        4.0154839955      -16.1300646273
 C         6.2649566054        3.1209486647      -16.9328964491
 C         6.9905495593        1.8172796944      -17.3993970618
 O         7.9764660228        1.4795704106      -16.8071005506
 C         6.3090967626        0.9494426863      -18.5263982770
 C         4.8328459393        0.5180664153      -18.2177202515
 O         4.0164210723        0.9015401048      -19.0475865352
 C         4.3518414064       -0.3049106114      -17.0491525274
 C         2.8543282189       -0.1401082131      -16.9089289035
 C         2.2775893681        1.1312864742      -16.2599365500
 O         1.7162660632        2.0446323362      -16.8875283769
 C         2.3747430524        1.1337456249      -14.7390918521
 C         0.9969757739        1.5459064982      -14.0788385487
 O         0.3083506428        2.4356801175      -14.5851754070
 C         0.5804177441        0.8248867273      -12.6974858374
 C        -0.2984476952       -0.4773002950      -12.7663432370
 C        -1.5097778208       -0.4928893966      -11.7329327865
 O        -1.9037117869        0.4640148975      -11.0849400247
 C        -2.1581194977       -1.9313621952      -11.5804982874
 C        -3.1431108293       -1.8511645631      -10.2880854170
 O        -2.6439377947       -2.2473998548       -9.2838591541
 C        -4.5484298450       -1.1342719547      -10.3984251234
 C        -5.0610625463       -0.9576055437       -9.0206720483
 C        -5.5502545641       -2.2043260630       -8.3290494042
 O        -5.8113366751       -3.2253925556       -8.9644216029
 C        -5.6903408463       -2.3159908819       -6.7696935644
 C        -4.6926725047       -3.5409963913       -6.3890652395
 O        -4.8632387311       -4.6227442232       -6.8877632469
 C        -3.4060266785       -3.2536462918       -5.5594601743
 C        -3.3426871325       -4.2022481641       -4.4389382433
 C        -4.6574407276       -4.0211295633       -3.5365534387
 O        -5.3390840478       -2.9825113216       -3.5175461344
 C        -5.0732070141       -4.9355840223       -2.4108055374
 C        -5.4219740899       -6.3378180430       -2.9421606273
 O        -4.4568213307       -7.0693965564       -3.1873276095
 C        -6.8822220149       -6.8403493694       -2.9429301709
 C        -7.0884161713       -8.0819807419       -3.8113327811
 C        -6.8519800642       -7.8076833445       -5.3750425401
 O        -6.6785521356       -6.6980952851       -5.8147719424
 C        -6.8965187189       -9.0287908698       -6.3295988159
 C        -6.8031868143       -8.5511808213       -7.8504961404
 O        -5.8612458794       -7.8552998703       -8.1960802937
 C        -7.8999551274       -9.0688610323       -8.9462702418
 C        -7.8568100454       -8.2711318778      -10.2108301470
 C        -8.3391759982       -6.7890803380       -9.8838333370
 O        -7.4448802337       -5.9681243304       -9.9854332339
 C        -9.7489861455       -6.3204312275       -9.4202009304
 C        -9.9358530960       -6.4857273698       -7.8112717793
 O        -8.9495110608       -6.6154396073       -7.1514520583
 C       -11.3476282563       -6.4497270630       -7.1197394723
 C       -11.6998587970       -7.8386315600       -6.6695598339
 C       -12.9178150505       -7.7652649836       -5.5895595912
 O       -13.4624286290       -6.7394973103       -5.2662400942
 C       -13.2244790793       -8.9617483519       -4.6211676434
 C       -11.8823393653       -8.9404702364       -3.6162034627
 O       -10.8081406358       -9.3931403036       -3.9995903075
 C       -12.0513423432       -8.3288301919       -2.2203995376
 C       -10.7918215014       -7.9456880986       -1.4313288572
 C       -11.2371783216       -7.3417176832       -0.0994628080
 O       -12.4236018443       -7.2125980628        0.0286406627
 C       -10.2428848368       -6.4440412988        0.8848307160
 C       -10.6470086819       -6.3786485493        2.4918796562
 O       -10.4394464591       -5.3667052015        3.0741287346
 C       -11.3461851866       -7.5368182629        3.0838775660
 C        -8.6889052740       -6.9047387178        0.9002517371
 C       -10.3023753208       -4.9970346328        0.3579983812
 C       -14.5876062700       -8.7149969247       -3.9156979174
 C       -13.3259259780      -10.3469299930       -5.3639721589
 C        -9.8851158593       -4.8263338445       -9.7741565390
 C       -10.7316706912       -7.1873852584      -10.1654595498
 C        -5.7381279494      -10.0190895913       -5.9677441811
 C        -8.2906030141       -9.7886913295       -6.2460506945
 C        -3.9329878675       -5.1052170701       -1.3910770703
 C        -6.2358244749       -4.2968791664       -1.6273950482
 C        -5.2110942364       -1.0255242821       -6.1523414025
 C        -7.2062058327       -2.6143188700       -6.4596771846
 C        -2.8548767732       -2.2611614776      -12.9816270843
 C        -1.0158028478       -3.0653201502      -11.2508743438
 C         2.9793642419       -0.1575873495      -14.0130166302
 C         3.1561522555        2.3767221323      -14.2800180734
 C         6.2439372671        1.7728241801      -19.8472806906
 C         7.2116998090       -0.2998196447      -18.6447092966
 C         8.0852002490        6.6299809828      -14.5841441497
 C         6.6544866671        5.8730223094      -12.7109761200
 C         3.1919509204        5.5676265466      -18.5248189270
 C         3.0931957103        8.1169517190      -18.3920568368
 C        -3.0960081535        8.2621782506      -14.8394424328
 C        -1.1647294827        8.5981599195      -13.2509716517
 H        -2.5809436320        4.4502011219      -14.3045047771
 H        -3.6044608344        5.7881998960      -13.8227556664
 H        -2.5081974813        5.2941777290      -12.7036450293
 H        -2.0809920059        8.1882995153      -17.4744573185
 H        -1.5107806751        6.5067352522      -17.0999094176
 H         0.0623912775        8.7974348219      -18.5214746725
 H        -0.7885508481        7.3198735192      -19.3016939226
 H         2.5757761935        8.2654953142      -14.9804983397
 H         3.9933685732        8.3868538890      -16.0567006583
 H         3.9447336248        6.7281088565      -13.5418103047
 H         4.7825456491        8.2999934816      -13.9590151232
 H         8.0249958643        3.3202929927      -15.8502642135
 H         7.5187330127        4.8275281595      -16.7225444348
 H         5.9164721719        3.6488718285      -17.8233366374
 H         5.3936556602        2.9125551703      -16.2597733694
 H         4.8853740272       -0.1654582942      -16.1029101768
 H         4.6120085469       -1.3049575343      -17.3847814884
 H         2.3973429882       -0.9899047528      -16.4634836121
 H         2.5095460750       -0.1981668058      -18.0195200318
 H         0.0240117197        1.4896246883      -12.0101252975
 H         1.4022963424        0.5210949805      -12.1307394442
 H         0.3002331614       -1.3110506254      -12.4480260824
 H        -0.7732029267       -0.5227025625      -13.7426945175
 H        -5.1457910469       -1.9656735279      -10.7238032535
 H        -4.5974386780       -0.2506713253      -10.9797045794
 H        -5.8555678402       -0.1310837192       -8.9909125875
 H        -4.4061575389       -0.3100636654       -8.3352844459
 H        -3.4871836906       -2.2285409300       -5.0241735148
 H        -2.6177355790       -3.0424148465       -6.2361038684
 H        -2.5689792501       -3.9655335808       -3.8057415618
 H        -3.0570946446       -5.2077392026       -4.6952914789
 H        -7.6081440525       -5.9581982714       -3.2847534495
 H        -7.1459131061       -6.9279469249       -1.8112353324
 H        -8.1298273699       -8.4416668188       -3.7857179929
 H        -6.4986554298       -8.8218753859       -3.5187812688
 H        -8.9315235377       -8.9709140198       -8.4990716567
 H        -7.7325853230      -10.1877205764       -9.1279629661
 H        -8.4846999437       -8.7066035748      -11.0358923926
 H        -6.8757087758       -8.1901687141      -10.7046224029
 H       -12.0085836601       -6.0731581214       -7.8445768405
 H       -11.2873202595       -5.8822424374       -6.1999768129
 H       -10.8148989631       -8.1751211991       -6.1019601071
 H       -11.9627869294       -8.5326484672       -7.4843161859
 H       -12.6420534838       -9.1200115494       -1.6359514952
 H       -12.8951657461       -7.5804174019       -2.2240410869
 H       -10.1364722534       -7.3237229908       -2.0416436413
 H       -10.2322632787       -8.8435691923       -1.1707353207
 H       -12.3798709022       -7.3421061561        2.6937701602
 H       -11.5565937034       -7.4210842073        4.1621558885
 H       -10.9255495195       -8.4549928994        2.7992504614
 H        -8.1403122808       -6.9899866341       -0.0548149761
 H        -8.6392259357       -7.8093168758        1.6172756683
 H        -8.1272079667       -6.0608708607        1.2839969132
 H        -9.9974887391       -4.2611307134        1.0686421161
 H       -11.3412913650       -4.8795081671       -0.0091974490
 H        -9.6946511871       -4.9561361201       -0.5665671907
 H       -14.8774904009       -9.4750317574       -3.2353059099
 H       -15.3432929407       -8.6476914535       -4.7791820726
 H       -14.7068443854       -7.6896410151       -3.4918561412
 H       -12.3079818006      -10.5785747930       -5.5256380893
 H       -13.9007894345      -10.2433606421       -6.2570413363
 H       -13.8569254472      -10.9906792687       -4.6726319122
 H       -10.9045894137       -4.5684400719      -10.0652070462
 H        -9.2354160538       -4.6136475638      -10.5928733817
 H        -9.5926016135       -4.1978589591       -8.9172551879
 H       -10.5761906976       -7.2250877220      -11.2621954662
 H       -11.8036840359       -6.8818055837      -10.0529475538
 H       -10.8417239706       -8.2832770016       -9.7187907518
 H        -4.8984460736       -9.3890228427       -5.9063728026
 H        -5.4870978319      -10.7249606661       -6.7965770983
 H        -6.0460162914      -10.5912709780       -5.0777858094
 H        -8.5257578151      -10.0433899098       -5.1698162818
 H        -8.3696285772      -10.5459169067       -6.9100200358
 H        -9.1233914749       -9.1095455934       -6.4539644064
 H        -3.4834378002       -4.1725143861       -1.0683956423
 H        -3.1296888823       -5.7766278971       -1.7969986004
 H        -4.4482549375       -5.4544507838       -0.5246237745
 H        -5.8976063788       -3.3742569138       -1.2034259639
 H        -6.4590055504       -4.9380416984       -0.7388142184
 H        -7.1779594919       -4.1324689431       -2.2296540099
 H        -5.3472594612       -1.0747207184       -5.0619312369
 H        -5.6574054769       -0.1316181509       -6.5384983324
 H        -4.1748837308       -0.8915694370       -6.4094589756
 H        -7.4071367741       -2.3784299162       -5.4287502520
 H        -7.3414682736       -3.6402719453       -6.5797021469
 H        -7.9037175922       -2.2273280357       -7.1697208336
 H        -3.1954032599       -3.3075265562      -12.9257005278
 H        -2.1180632162       -2.2380528073      -13.7517571990
 H        -3.6750169053       -1.6212860575      -13.2181994893
 H        -1.3055226681       -4.0304052687      -10.8689039578
 H        -0.3000665010       -2.8084077538      -10.4593739761
 H        -0.5541401742       -3.3173432302      -12.2264599081
 H         2.4998833922       -1.0366814151      -14.0654223572
 H         3.1094540186        0.0149388586      -12.9466728674
 H         4.0088120661       -0.4033332311      -14.3322579569
 H         3.5327673198        2.4100020776      -13.3069903292
 H         2.6269985283        3.3356335620      -14.5478332220
 H         4.1275132968        2.5083359027      -14.8398287667
 H         5.5291690812        2.5350349977      -19.6269992357
 H         5.7826405052        1.1789698605      -20.6046849316
 H         7.2064713496        2.2066470916      -20.0859024283
 H         8.1404939444       -0.0853257212      -19.1199960398
 H         6.8293334710       -1.2161399930      -19.1874184929
 H         7.5365245843       -0.5993479360      -17.6366641227
 H         8.8918940048        6.0733878984      -14.2036047768
 H         8.1103635469        7.6781746463      -14.2242483728
 H         8.1233078792        6.8967187275      -15.6664001935
 H         5.9167103754        5.2342377340      -12.3702477459
 H         6.7990862496        6.8053260793      -12.1986108530
 H         7.5615285133        5.3855532866      -12.3887544155
 H         3.3950361389        5.7112098401      -19.5381613096
 H         2.4930048324        4.7381453338      -18.2864492757
 H         4.0433928831        5.2738451956      -17.9639015403
 H         2.5307752128        8.8696050580      -17.8789550390
 H         2.9544606939        8.1107654718      -19.4715583614
 H         4.1479324146        8.2492592614      -18.0704963169
 H        -3.4299295966        7.8277630669      -15.7649830941
 H        -3.1080731430        9.3872754980      -14.9329797487
 H        -3.8186051551        7.9509482401      -14.1224488450
 H        -0.0465973091        8.6193953423      -13.4188398680
 H        -1.5646628092        8.1387597251      -12.3780770584
 H        -1.4598595083        9.6813108044      -13.2615475101
 Na        0.8362375757        4.2571095324      -16.3170643937
 Na       -6.5333234322       -5.4999096479       -8.0268083492
