232

 C       -21.1566886566       -6.6364644304       -1.5356987805
 C       -21.1376698637       -5.2507458597       -2.2149318276
 O       -20.4350738858       -4.3813664207       -1.7982089839
 C       -21.9051476188       -5.1154747269       -3.5920240704
 C       -20.7776548942       -4.6059124275       -4.6445538575
 O       -20.2612480936       -3.5372157703       -4.4170043046
 C       -20.4288795834       -5.4661811354       -5.9028938861
 C       -18.9571293729       -5.6010843885       -6.3642062142
 C       -17.8382656256       -5.0363166085       -5.3071280880
 O       -18.0051686421       -5.4951991949       -4.1681481531
 C       -16.7637079508       -4.0202951804       -5.7298448285
 C       -16.4973993505       -2.8693740918       -4.5390612666
 O       -17.3213058351       -2.0611326909       -4.2300691913
 C       -15.1357672695       -2.8618198415       -3.8618205958
 C       -15.1968307483       -2.0940971245       -2.4943515459
 C       -15.7564887244       -2.8656039468       -1.3285039874
 O       -16.9296802250       -3.2214619354       -1.3211109911
 C       -14.9957824495       -3.2107462677        0.0230811330
 C       -13.7872319874       -4.2161358902       -0.3659944293
 O       -12.8391771705       -3.7588274646       -0.9780058383
 C       -13.8274898414       -5.7615679092       -0.0496946437
 C       -12.7445616209       -6.4411055267       -0.9260584163
 C       -12.7987054768       -6.1697885619       -2.4171463790
 O       -13.7712391166       -5.6536331277       -2.9162383703
 C       -11.5473942991       -6.5524646970       -3.3233590293
 C       -10.1764524722       -5.9992387421       -2.6552624582
 O       -10.2958039212       -4.8500193610       -2.3479654584
 C        -8.8976550537       -6.8388899300       -2.5777221821
 C        -7.4552543471       -6.1196033459       -2.4387852584
 C        -7.4890482335       -4.8708863672       -3.4320808781
 O        -8.3900690801       -4.7875944254       -4.2217872515
 C        -6.4605167587       -3.6749214315       -3.3139719009
 C        -4.9762418785       -4.1283204194       -3.8581880581
 O        -4.2024734942       -4.5316825634       -3.0215284524
 C        -4.5098082973       -4.0806041820       -5.3282976106
 C        -3.0864483093       -4.6167336168       -5.4812668134
 C        -2.0243334114       -3.7096348371       -4.9582741719
 O        -2.1997909508       -2.5233218515       -4.9096871455
 C        -0.6148481372       -4.4555286474       -4.5281467599
 C         0.0311575462       -4.8423759079       -5.8146001784
 O        -0.1473682884       -5.9572641331       -6.2831223423
 C         0.7125439606       -3.8239825188       -6.6593779171
 C         0.5881590764       -4.1821845097       -8.1500283783
 C         1.2345537892       -3.1878340173       -9.1166601772
 O         2.0905526953       -2.3921714134       -8.7932930993
 C         0.5945410809       -3.2366773023      -10.5685993370
 C         1.2558524589       -1.9529946726      -11.2839227038
 O         0.5482387837       -1.0141496237      -11.5365096125
 C         2.7691914145       -1.9420901244      -11.4393911296
 C         3.1078659748       -1.7264780828      -12.9068243016
 C         4.5249859503       -1.1023341187      -13.2644106302
 O         4.7768723608        0.0301061622      -12.9990588565
 C         5.5931425793       -1.9320376175      -14.2292302689
 C         6.6021096656       -0.9290235485      -14.6850421050
 O         6.4510028592       -0.5024351010      -15.8369203283
 C         7.5049663865       -0.1595812531      -13.7277868013
 C         9.0474135448        0.1601965284      -14.2735274938
 C         9.2035499426        1.3905250507      -15.2461528434
 O         9.7884403104        1.1727068822      -16.2987824414
 C         8.8492270479        2.8823007313      -14.8844676409
 C         7.3879008598        3.0736534072      -15.3640547740
 O         6.4460283694        2.3937259004      -14.9388989084
 C         7.0906567720        4.0920183287      -16.4684381852
 C         5.5578702420        4.2664687685      -16.7035886285
 C         4.9586894088        3.2604152433      -17.6907575946
 O         5.4033826172        2.1705708779      -17.8569025214
 C         3.6943395255        3.7045150491      -18.5104530654
 C         4.0396281158        5.0065484320      -19.3524664649
 O         3.8177339948        6.0976770735      -18.8702067930
 C         4.7118153133        4.9019363240      -20.7649559948
 C         6.1187539289        5.6733219276      -20.6265710690
 C         6.7341668295        6.0538154142      -21.9766517380
 O         6.0452689797        6.6949986829      -22.8011691967
 C         8.2729573910        5.6922017513      -22.2012310476
 C         8.5768249764        4.1628178343      -21.8535065519
 O         7.8636837438        3.3267886835      -22.3398374796
 C         9.6991246111        4.0115472932      -20.9023954218
 C         9.9180273494        2.5543060071      -20.4231898331
 C         8.6731029097        1.6327530672      -20.1149579579
 O         7.8702488965        2.0664948879      -19.3468472089
 C         8.6333027889        0.3093659156      -20.7299799147
 C         7.1653609552       -0.2641991806      -20.7026410709
 O         6.7680557825       -0.5738524198      -19.5714994892
 C         6.1842044089       -0.4028879706      -21.8411554774
 C         9.1476092459        0.3739331673      -22.2322148518
 C         9.6382521645       -0.6088562718      -20.0366594238
 C         8.3619292300        5.7819765532      -23.7618958364
 C         9.0406887831        6.7441198743      -21.3774992584
 C         3.4464860646        2.5691313873      -19.4735522289
 C         2.5887816098        4.2069503567      -17.5408074732
 C         8.9430467778        2.9808536231      -13.3295932542
 C         9.8126098281        3.7928785329      -15.6209237409
 C         6.0224766374       -3.1695086893      -13.3755024014
 C         4.6802315904       -2.2759452087      -15.5048906000
 C         1.0771510613       -4.5693527181      -11.1954302924
 C        -0.9492229809       -3.0086745277      -10.6362226275
 C         0.0284116478       -3.3316399812       -3.7010037893
 C        -0.7077500296       -5.7783703729       -3.7408109278
 C        -7.0659650931       -2.6091248670       -4.3298332914
 C        -6.3957609881       -3.2762053648       -1.8084024094
 C       -11.5385027931       -8.1059845911       -3.4211197509
 C       -11.7276270242       -5.7773041526       -4.6764661339
 C       -14.3347395297       -1.9518932918        0.4993773977
 C       -15.8723768101       -3.8827887934        1.0250947545
 C       -15.4741947503       -4.8566075929       -6.0244973211
 C       -17.0881810085       -3.0554716794       -6.9082884639
 C       -22.6364458580       -6.3911122006       -4.1002755083
 C       -22.9718254786       -4.0720456071       -3.4973667540
 H       -21.9487884560       -6.5987556423       -0.8619456209
 H       -20.2044427115       -6.9056071265       -1.0680315965
 H       -21.3541687669       -7.4494637041       -2.2353011512
 H       -20.9511244435       -5.0331456973       -6.8160597990
 H       -20.9213404812       -6.4605201312       -5.7575160582
 H       -18.7213887425       -5.0474873384       -7.2737482750
 H       -18.7226846072       -6.6611699826       -6.6010016769
 H       -14.3429276450       -2.3236292809       -4.4953030688
 H       -14.9170169023       -3.9232493790       -3.6285883234
 H       -15.7979944912       -1.2129619800       -2.6167039209
 H       -14.1700766743       -1.7324684214       -2.2564164729
 H       -14.8070736581       -6.2985960969       -0.2199272559
 H       -13.6245221244       -5.9418793192        1.0306324447
 H       -12.8252470539       -7.5201038965       -0.7645385239
 H       -11.7760875638       -6.0381761050       -0.6392728597
 H        -9.0096365027       -7.4864466538       -3.5040954102
 H        -9.2310734414       -7.5579287071       -1.7411272644
 H        -6.6902955319       -6.7833038341       -2.7215101972
 H        -7.3234764824       -5.8129212331       -1.4188727638
 H        -4.4631223349       -2.9899502102       -5.5881413348
 H        -5.3189694573       -4.4974092510       -5.9671469842
 H        -2.8392826415       -4.9124558241       -6.5349482820
 H        -2.9919867588       -5.6357793389       -4.9431789335
 H         1.6959301518       -3.6495060579       -6.1966264770
 H         0.2941051534       -2.8316107828       -6.5670359966
 H        -0.4677712546       -4.3095918184       -8.2171347378
 H         0.8945808022       -5.2908389386       -8.2876087337
 H         3.3075757599       -2.7999850388      -11.0620412827
 H         3.2536085448       -1.1418607270      -10.7986355694
 H         2.3987579547       -1.0193266575      -13.2559060535
 H         2.8618068983       -2.7160954641      -13.3955098419
 H         7.5613963401       -0.5193236126      -12.6488793730
 H         7.0501382946        0.8426223390      -13.5238368457
 H         9.5125089570       -0.6745347532      -14.7395875998
 H         9.5174232784        0.2515235304      -13.3136211219
 H         7.7215767805        3.8814638188      -17.4047675959
 H         7.3788013213        5.1256780721      -16.0486340801
 H         5.2809760118        5.3173108032      -16.9952592284
 H         5.0516740388        3.9983647865      -15.7158709746
 H         4.1453852169        5.3313632150      -21.6208501641
 H         5.0108656042        3.9357821025      -21.1370627089
 H         6.8120259803        4.9235194592      -20.1871466571
 H         5.8939036175        6.6633196431      -20.2684193212
 H         9.6520843101        4.6894615030      -20.0507930433
 H        10.6431272251        4.2639922044      -21.4653027283
 H        10.3011890761        2.4855276548      -19.4474230244
 H        10.6548391097        2.1698691296      -21.1374785696
 H         5.8980904866       -1.4184579945      -21.9772463705
 H         6.6175740099       -0.1513079426      -22.8008522185
 H         5.2302691089        0.0003344044      -21.5928083531
 H         9.0718486066       -0.5974927309      -22.5646501687
 H        10.1359134677        0.8443776308      -22.1717376943
 H         8.5749052449        1.1234391189      -22.9212123167
 H        10.6155993249       -0.1461878254      -20.1845365195
 H         9.6981333564       -1.6319711190      -20.4657176631
 H         9.4344057434       -0.6383894431      -18.9538405523
 H         7.4416198892        5.3403357439      -24.1185332350
 H         9.2794519567        5.3685228496      -24.1869770890
 H         8.3468994630        6.8080325746      -24.0495599372
 H         9.8806584847        7.1205649081      -21.9232009537
 H         9.3563144268        6.4631803668      -20.3534790075
 H         8.3438524231        7.5840589319      -21.2473348685
 H         3.2475908810        1.7483364373      -18.7152803011
 H         4.2774538186        2.2401119516      -20.0455534192
 H         2.5640902874        2.8275938635      -20.0669919490
 H         2.9775548975        5.0789964703      -17.0691509008
 H         2.4618949546        3.5066142549      -16.6868650799
 H         1.6199628433        4.3475298619      -18.0270767253
 H         8.7963223043        3.9706451156      -12.8967202902
 H         9.8941763977        2.6493192401      -13.0081258647
 H         8.2061782773        2.4341241556      -12.7486831944
 H        10.8865001818        3.6335910345      -15.2711002692
 H         9.6100239662        4.8142590379      -15.3763216271
 H         9.8307545231        3.9011397448      -16.7384173725
 H         5.8090431127       -4.1325643422      -13.8244588998
 H         5.4720253775       -3.3175124035      -12.4389482062
 H         7.0925417217       -3.2807875343      -13.2115986866
 H         3.8180800053       -3.0122437268      -15.3138948756
 H         5.2161312016       -2.7224695938      -16.3301244703
 H         4.3203134464       -1.3901426547      -16.0508253240
 H         0.7914737435       -5.3017022006      -10.4472350719
 H         2.1960825024       -4.6686705488      -11.4554694364
 H         0.5139210766       -4.7574874614      -12.1198722297
 H        -1.1649009375       -2.0122802159      -10.2814842844
 H        -1.5592244775       -3.7045685551       -9.9903067554
 H        -1.2009420569       -3.2011953724      -11.6652670474
 H        -0.5694044987       -2.9706850280       -2.8695794084
 H         0.2552415584       -2.4392330042       -4.3324916695
 H         1.0186289732       -3.5634832166       -3.1902469633
 H        -1.0311200019       -6.6029228153       -4.4411849517
 H        -1.3144693759       -5.8004679207       -2.8649327675
 H         0.2291111201       -6.1860669547       -3.3560880982
 H        -6.9875892722       -2.9522555790       -5.4024731848
 H        -6.4767194711       -1.6500464272       -4.4359344795
 H        -8.1010798127       -2.4603211928       -4.1646118261
 H        -7.3117598179       -3.3662050336       -1.2315623755
 H        -6.0570739448       -2.2687692960       -1.6546222350
 H        -5.7151302288       -4.0062455890       -1.3347442524
 H       -12.3776704510       -8.4355802763       -4.0775020945
 H       -11.7454497708       -8.5222903370       -2.4310589931
 H       -10.7120479621       -8.4668262879       -3.9941050389
 H       -12.7724131727       -5.7655205220       -4.9812362446
 H       -11.0893830552       -6.1200627756       -5.4814608873
 H       -11.4590265162       -4.6983891568       -4.5821543640
 H       -14.8280824422       -1.0267431844        0.2749238388
 H       -13.3249054413       -1.9137840763        0.0214708623
 H       -14.2527785492       -2.0076280585        1.5736353386
 H       -15.2560372033       -4.1685195613        1.9486200126
 H       -16.3015795752       -4.8691566663        0.6109714043
 H       -16.6810190208       -3.1346350239        1.2941873613
 H       -14.6566005689       -4.1114341125       -6.3249880409
 H       -15.6324115329       -5.4920411451       -6.8639505127
 H       -15.0410160252       -5.3246606153       -5.1525062036
 H       -18.0472379148       -2.5545707572       -6.8764505377
 H       -17.0024584259       -3.6104886887       -7.7898089859
 H       -16.4969658449       -2.1676124982       -6.9863485018
 H       -21.9608962786       -7.2613932293       -4.1671642172
 H       -23.0825239636       -6.1378486790       -5.0974612910
 H       -23.4104190158       -6.6709071832       -3.4522926256
 H       -23.3017250389       -3.7629871233       -4.5187132320
 H       -22.5985230545       -3.0915449938       -3.0887548865
 H       -23.8230485326       -4.4666733773       -3.0236274629
 Na      -18.4481279986       -3.6716626931       -2.7997502776
 Na        7.0715030191        0.8876414886      -17.4644228601
