232

 C        -2.6144165697        5.0472565488      -14.1065938987
 C        -1.5383388407        5.9277239081      -14.6838055087
 O        -0.4051468704        5.5080406294      -14.9627399475
 C        -1.5645022492        7.5907057028      -14.6444244416
 C        -0.7418773060        8.1199135803      -15.8401935557
 O         0.2189212245        8.8688252964      -15.6923139230
 C        -1.2630066422        7.7748274013      -17.2374302046
 C        -0.1911884612        7.6869232250      -18.3912870275
 C         0.8868787768        6.6716397428      -18.0083224824
 O         0.3895426866        5.6401544304      -17.5317774731
 C         2.5054047176        6.8284769246      -17.9912403489
 C         2.8236235277        6.6573108240      -16.4675769524
 O         2.5471119714        5.6464673110      -15.7830387836
 C         3.4286239850        7.9067270381      -15.7169606458
 C         4.4899283688        7.4340425778      -14.6914406754
 C         5.5477868859        6.5027615815      -15.2235153120
 O         5.7052585480        6.3765091672      -16.4056089294
 C         6.6849163876        5.8128647816      -14.3020617606
 C         6.5777956076        4.2855747558      -14.6041304831
 O         5.9762299337        3.5915126657      -13.7575307001
 C         7.2195868585        3.6529447364      -15.7925889944
 C         6.1459117337        3.0911697961      -16.7553260926
 C         6.6036934555        1.6798555995      -17.2471972002
 O         7.2626420225        0.8932189351      -16.5996037594
 C         6.0584262824        1.0975928637      -18.6840242540
 C         4.5113089804        0.8875154763      -18.5229524891
 O         3.6510535436        1.4734353684      -19.1295180560
 C         4.1132883143       -0.2078203228      -17.4671154950
 C         2.6671386664       -0.1332279669      -16.7657545669
 C         2.2485720192        1.1443277026      -16.0171272414
 O         1.7326877065        1.9733987903      -16.7018809361
 C         2.3509831132        1.2772348417      -14.3373283518
 C         0.7988050462        1.2989445755      -13.9750521754
 O         0.0859524133        2.0665764949      -14.5893977030
 C         0.3589544976        0.7942195306      -12.5726772419
 C         0.0637244804       -0.7631803897      -12.3983771890
 C        -1.3205702967       -0.8386848986      -11.7734977418
 O        -1.9762054060        0.1396623311      -11.6261831885
 C        -1.7881305184       -2.3488461829      -11.3750225410
 C        -2.8794891102       -2.2697292932      -10.3086865158
 O        -2.5830732738       -2.5758402400       -9.1440322602
 C        -4.2266578260       -1.6092653202      -10.5986268713
 C        -5.0584831181       -0.9665425318       -9.4646468975
 C        -5.7298672053       -2.1093635426       -8.5209780857
 O        -6.3191291319       -3.0103458746       -9.0753065031
 C        -5.5038882243       -2.0968026386       -6.9575008254
 C        -4.6552844138       -3.3216928804       -6.5540861800
 O        -4.9409286230       -4.4505859763       -6.9495711977
 C        -3.4687646183       -3.2080740872       -5.5923141020
 C        -3.3000407266       -4.0853650566       -4.2538881257
 C        -4.5221172296       -3.8623834322       -3.4027639765
 O        -5.2923737350       -2.9865009441       -3.7297473758
 C        -4.8238808163       -4.8896932035       -2.2837408912
 C        -5.2062131143       -6.2611182627       -2.9049268580
 O        -4.3218381404       -6.8633068335       -3.4213594884
 C        -6.7419299122       -6.7701969946       -2.9807957675
 C        -6.9908730249       -8.0563820152       -3.7212899300
 C        -6.6824263667       -7.9478080190       -5.2280250222
 O        -6.3557848391       -6.8928923887       -5.7781624543
 C        -6.9846600004       -9.1718451683       -6.2222039707
 C        -7.0530029550       -8.6375350294       -7.6616036593
 O        -6.1603806358       -7.9661179978       -8.1724649363
 C        -8.2125719898       -9.0642357362       -8.5087476833
 C        -8.0690262715       -8.3969210914       -9.9362723836
 C        -8.2465552886       -6.8349832506       -9.9301766907
 O        -7.3220695539       -6.0459799831      -10.0329268451
 C        -9.7074107306       -6.3161279015       -9.7060307078
 C        -9.9901173062       -6.5456708753       -8.1759209533
 O        -9.0245517906       -6.6254766675       -7.3611376693
 C       -11.4641589860       -6.5678394481       -7.6719576380
 C       -11.6689612248       -7.8061235003       -6.8018713842
 C       -12.7580088661       -7.5063410528       -5.6661360557
 O       -13.2145344741       -6.3920229670       -5.4824163804
 C       -13.0977419831       -8.6308349254       -4.5724742558
 C       -11.9927096675       -8.4893139746       -3.4553010602
 O       -10.8175688334       -8.4494354263       -3.8016371396
 C       -12.3951729314       -8.2082971683       -2.0687325809
 C       -11.1906308126       -7.7028869278       -1.2782491566
 C       -11.5136908749       -7.1987870743        0.1697709038
 O       -12.6050197239       -7.4736511397        0.7155728218
 C       -10.2907417099       -6.5676512953        0.7657004607
 C       -10.6707475404       -5.9864932049        2.1288832700
 O       -10.4377967274       -4.8240696801        2.4401316621
 C       -11.3150077429       -6.8269854263        3.2442630430
 C        -9.2700878198       -7.8376963247        0.9903341502
 C        -9.7004731091       -5.3487674071       -0.0216426663
 C       -14.5253697663       -8.3049632681       -4.0717480297
 C       -13.0751291031      -10.0811824420       -5.1398772264
 C        -9.6986398197       -4.7679085505       -9.8838535638
 C       -10.7492933343       -6.9416079753      -10.5801688045
 C        -5.6346738735      -10.0654960288       -6.0426588823
 C        -8.1707223848       -9.9690671534       -5.8409799811
 C        -3.4436323234       -5.0796228376       -1.4266157364
 C        -5.8482374494       -4.1872987061       -1.3936325919
 C        -4.8810146763       -0.8708354923       -6.3864112733
 C        -6.8883198680       -2.2428980952       -6.2792804238
 C        -2.5286658667       -2.8217946466      -12.7122548670
 C        -0.6805213187       -3.2881000764      -10.9605089631
 C         3.1209423940        0.0677900590      -13.8536732787
 C         2.9940110026        2.6117427078      -13.9572233284
 C         6.3466278222        2.0395121378      -19.8650667927
 C         6.6975771939       -0.2134053590      -19.0489406080
 C         8.1081794484        6.4222533182      -14.6262587269
 C         6.3079955396        6.0323926560      -12.7691674521
 C         3.0571126077        5.5096094433      -18.6713595892
 C         3.1615205809        8.1153302560      -18.6420262333
 C        -3.0160144387        8.1808577082      -14.8862056074
 C        -0.9716463279        7.9772989043      -13.3041229688
 H        -2.7963006539        4.3986772873      -14.9372020669
 H        -3.5560584221        5.5423734293      -13.9093321874
 H        -2.2235904949        4.4768107252      -13.2563732920
 H        -2.0944726509        8.4882902603      -17.4948208753
 H        -1.7332458883        6.8282101606      -17.1855995565
 H         0.1361594653        8.6703955076      -18.8001513623
 H        -0.6541618791        7.1465310807      -19.2815926651
 H         2.6205538868        8.3930652057      -15.1470838120
 H         3.9755724264        8.7281062698      -16.2275319299
 H         4.1612666716        7.0677128352      -13.7287109861
 H         5.1998728870        8.2781752094      -14.4522025428
 H         7.8297203248        2.8461091645      -15.4308378734
 H         7.8541746370        4.2579979879      -16.4452152417
 H         5.8969041003        3.8286439418      -17.5691396242
 H         5.2138301396        2.7690644915      -16.2863885832
 H         4.8591251364       -0.1807152036      -16.6606372494
 H         4.1583754680       -1.2367597781      -17.8538713006
 H         2.6836180874       -1.0718074383      -16.1577848655
 H         2.0024007068       -0.2514857931      -17.5424526544
 H        -0.4371722498        1.3639066192      -12.3184138401
 H         1.3556704010        1.0053184175      -12.0211500556
 H         0.8977606290       -1.2358259348      -11.9771945401
 H         0.0299368327       -1.1610066936      -13.4298489519
 H        -4.8447205469       -2.2848531715      -11.1311773905
 H        -3.9382631471       -0.7155650394      -11.1527199938
 H        -5.8315588051       -0.2756453398       -9.9006934068
 H        -4.3525978765       -0.2530697034       -8.9881411171
 H        -3.2794856000       -2.2046344898       -5.2477837105
 H        -2.5645844116       -3.5099972031       -6.2271045422
 H        -2.3066924591       -3.7819672482       -4.0023446425
 H        -3.3659853064       -5.1436368532       -4.3951021249
 H        -7.2712443298       -5.8743305566       -3.3900139115
 H        -7.1142216802       -6.9836257279       -1.8663665108
 H        -7.9993551667       -8.2277050768       -3.6016584227
 H        -6.4116747726       -8.9670621888       -3.3403978983
 H        -9.2566239575       -8.9505307587       -8.0090144977
 H        -8.1570000852      -10.1506623032       -8.6728544985
 H        -8.8308689661       -8.8005413297      -10.6294917098
 H        -7.0351991125       -8.6129088801      -10.3451285044
 H       -12.1472773990       -6.5249840700       -8.5061074065
 H       -11.5871597790       -5.6457744798       -7.1036328213
 H       -10.7312875826       -8.0128384031       -6.2517485000
 H       -11.9319347542       -8.7306996006       -7.3837339123
 H       -12.7154307909       -9.1893745146       -1.5456582269
 H       -13.2494283883       -7.5240728831       -2.0940273383
 H       -10.5084151459       -7.0246509273       -1.7535917948
 H       -10.5926646009       -8.6351538585       -1.1556021895
 H       -11.1959574429       -7.9101438478        3.2280137812
 H       -12.3749486994       -6.6071751387        3.1694521459
 H       -10.9425152620       -6.3260450252        4.1927314358
 H        -8.7560079630       -8.0917770509       -0.0104218164
 H        -9.6887424478       -8.7864623734        1.3301318944
 H        -8.5435776093       -7.3760204898        1.7665199886
 H        -8.6765258204       -4.9609385831        0.3245329987
 H       -10.4697273037       -4.5907319991       -0.0109395200
 H        -9.6789211148       -5.5774947850       -1.0688531822
 H       -14.8744276515       -9.0411472406       -3.2389319247
 H       -15.2010928078       -8.2896729525       -4.9045796385
 H       -14.5552419342       -7.2659606632       -3.6921010531
 H       -12.0627496343      -10.4138032942       -5.2962190957
 H       -13.6156841987       -9.9493350250       -6.0730008023
 H       -13.6508387548      -10.6261839485       -4.4504331908
 H        -9.9608172032       -4.2116644493       -8.9880642770
 H       -10.4739411000       -4.3683245420      -10.5840274622
 H        -8.7538302552       -4.4724419067      -10.2884875387
 H       -10.5185828570       -6.8599240611      -11.7229934280
 H       -11.7729325094       -6.4557675846      -10.5472240007
 H       -10.9684776922       -8.0120049607      -10.5150854630
 H        -4.6129355930       -9.6093527824       -6.1804177734
 H        -5.6938340594      -10.8667041516       -6.7224006026
 H        -5.7577049840      -10.3145776667       -4.9822139563
 H        -8.0572700667      -10.3772791949       -4.9138734662
 H        -8.3289179716      -10.9194624300       -6.4677140915
 H        -9.0626115117       -9.3903985419       -5.9207458520
 H        -3.0355872297       -4.1187796950       -1.0465445979
 H        -2.7514685237       -5.6446959252       -2.0115368661
 H        -3.7459440421       -5.7477475117       -0.6178595890
 H        -5.3484671371       -3.2536683400       -0.9943944065
 H        -6.2722600935       -4.7246684192       -0.5048100421
 H        -6.6548767936       -3.8647520283       -2.0266832940
 H        -4.9268515408       -0.8344761136       -5.3057733511
 H        -5.3394128675        0.0458631019       -6.8084073551
 H        -3.8190239214       -0.9431491236       -6.5861098780
 H        -6.8378133108       -2.6292489366       -5.2918357978
 H        -7.6126176129       -2.8003278231       -6.8782208769
 H        -7.2381951894       -1.2639643703       -6.1007239637
 H        -2.7081483909       -3.8614610248      -12.5521106299
 H        -1.9260714593       -2.7038481299      -13.6293630969
 H        -3.5239014990       -2.3076449204      -12.7984225189
 H        -1.1505992040       -4.2350240889      -10.6074967288
 H        -0.1396727903       -2.9518099639      -10.0391621055
 H         0.0940380391       -3.4945182773      -11.6938633319
 H         2.3743530090       -0.7889277408      -13.7976002381
 H         3.4418545238        0.1542486747      -12.8639161837
 H         3.9872272885       -0.2172816009      -14.3463420231
 H         2.8945054757        2.8597959558      -12.8317576314
 H         2.5118429405        3.4543314244      -14.4237966816
 H         4.0591492761        2.7442454337      -14.1692388308
 H         6.0535277112        3.0574470915      -19.6383222801
 H         5.8725362611        1.6702953732      -20.7601117261
 H         7.4138074725        1.9911873285      -19.9926609891
 H         7.6673132967       -0.0248666900      -19.6158100334
 H         6.1429271417       -0.8563562051      -19.7107256080
 H         6.8846851310       -0.8518691960      -18.1896483470
 H         8.9680992370        5.8090850753      -14.1333377479
 H         8.2329666882        7.3747926991      -14.1137966020
 H         8.2695370186        6.4263342320      -15.6833326200
 H         5.1963622060        5.9283050080      -12.6237563136
 H         6.5564464833        7.0096599674      -12.4960898998
 H         6.7837482692        5.2971361411      -12.1382081900
 H         2.6889571191        5.4849652311      -19.7060906600
 H         2.8371531491        4.6390816882      -18.1178819144
 H         4.1106965366        5.6434886928      -18.7782953786
 H         2.8859323884        9.1204872770      -18.3480359357
 H         3.1247352373        7.8665055227      -19.7032626803
 H         4.2028845746        8.0993340363      -18.5088108711
 H        -3.2119794500        8.1371410665      -15.9429880595
 H        -3.2364735823        9.1251112941      -14.4938054285
 H        -3.7508825156        7.5834452216      -14.3352675862
 H        -0.1411498268        7.2943821972      -13.1026334506
 H        -1.7638840494        7.7011700717      -12.5374395336
 H        -0.8249634085        9.0529881814      -13.3232784192
 Na        0.9433110673        4.0974809786      -15.9347053793
 Na       -6.7096259177       -5.5343156222       -7.9595900502
