232

 C        -2.7337819065        4.9783100010      -14.4229240619
 C        -1.4430665598        5.9606499256      -14.6775074296
 O        -0.3958179014        5.5028783975      -15.0125304834
 C        -1.6503949163        7.5496673954      -14.6307974840
 C        -0.7692904398        8.1203695237      -15.7882453523
 O         0.3449204587        8.5313304690      -15.6313298487
 C        -1.1792696270        7.8965045406      -17.2494359161
 C         0.0512232143        7.9215497538      -18.1875623980
 C         0.7521732478        6.5512261714      -17.9475700910
 O         0.2025037360        5.4854471778      -17.9384993886
 C         2.3823230125        6.6874476627      -17.9315456246
 C         2.9152480652        6.7705914577      -16.3759637360
 O         2.8876440875        5.7034008558      -15.7885885559
 C         3.5250467729        7.9615287522      -15.7851933378
 C         4.5656951541        7.5389575417      -14.7499790544
 C         5.6222516869        6.4478533169      -15.3309225072
 O         5.7102103648        6.3829445012      -16.5491483702
 C         6.6070874180        5.7498959951      -14.3445539072
 C         6.4597660818        4.1870422209      -14.5417376333
 O         5.8837890559        3.4769150477      -13.7479872910
 C         7.1367119121        3.5426352630      -15.8485622742
 C         6.1046995480        2.8563176181      -16.6705295325
 C         6.5566029244        1.5031577468      -17.1801030828
 O         6.9946583165        0.5821295879      -16.5581156550
 C         5.9763751058        1.1770972835      -18.6568703761
 C         4.4793198295        0.8936270195      -18.4030976172
 O         3.6489073044        1.7119803600      -18.7339830499
 C         4.0449254825       -0.1637217894      -17.3985617129
 C         2.5499562496        0.0050410809      -16.8979863199
 C         2.2701046219        1.2165877507      -15.9691509958
 O         1.8492336824        2.2192323808      -16.5553335266
 C         2.3228948183        1.1339241332      -14.3957820625
 C         0.7469604681        1.1951849239      -13.8932741099
 O         0.1576853014        1.9936787867      -14.6028649828
 C         0.3502541042        0.7877904967      -12.4167045193
 C        -0.0294117543       -0.6520054346      -12.2939725565
 C        -1.3966272939       -0.9588770696      -11.7658523508
 O        -2.2479626031       -0.0577143003      -11.6112618055
 C        -1.7641710296       -2.5020534077      -11.4462177614
 C        -2.9183898257       -2.4372105479      -10.2916740583
 O        -2.5879410493       -2.4846165276       -9.1308498892
 C        -4.3282674883       -1.9919777782      -10.6626390538
 C        -5.0076906863       -1.3438233855       -9.3949906774
 C        -5.6873061864       -2.2654689545       -8.4695314033
 O        -6.3799617841       -3.2001759697       -8.8762213001
 C        -5.4036069135       -2.1734759504       -6.9643103570
 C        -4.5382315807       -3.4220689292       -6.5525610665
 O        -4.8031208066       -4.5237455587       -6.8835896078
 C        -3.2896014282       -3.1892755792       -5.6861048375
 C        -3.3407062183       -4.0123508529       -4.4130181487
 C        -4.4949471929       -3.7713460221       -3.4622047625
 O        -5.3802254627       -2.9868515613       -3.7420994149
 C        -4.6777915140       -4.9199164804       -2.2247265585
 C        -5.1317937300       -6.3047060718       -2.9035295609
 O        -4.3221419762       -6.9340687804       -3.5624551375
 C        -6.6538259558       -6.6686046924       -2.8459501712
 C        -6.7884541413       -7.9813721419       -3.7528833312
 C        -6.6956536158       -7.6946880434       -5.3436789697
 O        -6.4843948108       -6.5893367195       -5.7110098086
 C        -6.9433762829       -9.1209965004       -6.1692734280
 C        -7.0923073284       -8.6907016958       -7.6963308767
 O        -6.2487172652       -7.8849197146       -8.0285558868
 C        -8.2504484089       -9.1452160140       -8.6179563704
 C        -8.2889598316       -8.4954841610       -9.9977896694
 C        -8.2624686747       -6.9472604731       -9.9936861263
 O        -7.2194598898       -6.3025651024      -10.0692504636
 C        -9.6839498011       -6.2376233994       -9.8091166320
 C       -10.0001845002       -6.3007910015       -8.2195878363
 O        -9.1372570859       -6.1453394495       -7.4169602764
 C       -11.4511944776       -6.6094751914       -7.7747814217
 C       -11.5168246275       -7.6792443141       -6.6887518528
 C       -12.6917960461       -7.3152082003       -5.6688300450
 O       -13.1835617186       -6.2328103844       -5.7135756690
 C       -13.1815214159       -8.4830949757       -4.6887134425
 C       -12.1353817486       -8.4275874377       -3.5316556962
 O       -10.9621717445       -8.3227240779       -3.9057411303
 C       -12.5758431638       -8.0563051663       -2.0953492978
 C       -11.3577272220       -7.6960398688       -1.2835215528
 C       -11.5683526379       -7.2668769172        0.2223039497
 O       -12.6178613056       -7.2410270311        0.7863458704
 C       -10.1775638321       -6.7121346759        0.9924497748
 C       -10.6467498003       -5.7969081739        2.2891606810
 O       -10.5205926035       -4.5900893578        2.2473351216
 C       -11.2003046776       -6.5689789817        3.4082752829
 C        -9.1695022609       -7.7804054249        1.4388125717
 C        -9.4181374232       -5.8130561948       -0.0129081953
 C       -14.6598556392       -8.2538225986       -4.2672418592
 C       -12.9529937693      -10.0308725090       -5.1599413872
 C        -9.5060015323       -4.7317443137      -10.2236908371
 C       -10.7066659144       -6.9635205224      -10.7092015120
 C        -5.6285226025       -9.8605596534       -6.1293079363
 C        -8.0470905130       -9.9800612376       -5.6330392038
 C        -3.3145326612       -5.1548051355       -1.4809350233
 C        -5.8052092182       -4.4004782883       -1.2642592473
 C        -4.7869087701       -0.8006373347       -6.6174031411
 C        -6.9222299808       -2.0383540254       -6.4356070572
 C        -2.2046354926       -3.1301272378      -12.7462753264
 C        -0.5660804933       -3.1669542106      -10.8788754575
 C         3.2645964287       -0.0225540607      -13.8791746980
 C         2.9435660593        2.4727346934      -13.7553709498
 C         6.0120193034        2.3354138955      -19.6516854931
 C         6.7258741188       -0.0661423478      -19.2487474336
 C         8.0093958495        6.3662625709      -14.6557236834
 C         6.2810510928        6.0513626410      -12.8771589553
 C         2.9010660005        5.3533417548      -18.5757805291
 C         2.8417952581        7.8502364351      -18.7824486648
 C        -3.1301099743        7.9662932284      -14.6759935587
 C        -1.0396899021        8.1473236600      -13.2836066369
 H        -3.2408080801        4.6081745730      -15.3344081698
 H        -3.4398667450        5.6221932411      -13.9071283113
 H        -2.3626358650        4.1451028463      -13.8008126039
 H        -1.9027244643        8.5813920762      -17.5878557880
 H        -1.7057819659        6.9089783782      -17.3928338824
 H         0.6945120085        8.7676133366      -18.0064590646
 H        -0.2794312429        8.0843275153      -19.1808015672
 H         2.7804925594        8.5268899584      -15.2381673699
 H         3.9737632881        8.6563132632      -16.4623244602
 H         4.1250181840        6.9846439621      -13.8866572344
 H         5.0783724835        8.3762585914      -14.2701615420
 H         7.8446496378        2.7398215952      -15.4925939770
 H         7.7462610283        4.1920232072      -16.4944977195
 H         5.8142945931        3.4420939703      -17.5260452384
 H         5.1410823325        2.6198911984      -16.1213696090
 H         4.7536689272       -0.1873217229      -16.5741171853
 H         4.0759039231       -1.1608034620      -17.8260216677
 H         2.3263836559       -0.9002793913      -16.4208847773
 H         2.0060538818        0.1596171053      -17.8896811286
 H        -0.6510939118        1.3838773967      -12.2332727779
 H         1.1774255051        1.0717506298      -11.8648935479
 H         0.7644588634       -1.1315876707      -11.6156875736
 H         0.1210591453       -1.2755563505      -13.1754264443
 H        -4.9621035688       -2.8951441963      -10.9011891632
 H        -4.2443537045       -1.2745885919      -11.4920207545
 H        -5.8165525024       -0.6996291073       -9.6413453661
 H        -4.1476189333       -0.8748369003       -8.8227723306
 H        -3.1273728226       -2.0991991054       -5.4944659860
 H        -2.5423651179       -3.5953029217       -6.2946366425
 H        -2.4010863540       -3.7483822431       -3.8091692943
 H        -3.3659546678       -5.1264938823       -4.7226730375
 H        -7.0956242608       -5.8181321325       -3.3043617631
 H        -6.9682088919       -6.8048715651       -1.8829207822
 H        -7.8854603753       -8.3590277135       -3.4810604287
 H        -6.0928956205       -8.7772985357       -3.6189608982
 H        -9.1646544327       -9.0738805987       -8.1364368675
 H        -8.1672334773      -10.1917304908       -8.8476073114
 H        -9.1757472499       -8.8742787898      -10.4957697246
 H        -7.4245182575       -8.7690712282      -10.5135678057
 H       -12.1231881851       -6.6823300906       -8.6569144325
 H       -11.8011612162       -5.7251265304       -7.1956198831
 H       -10.6010271389       -7.4912561682       -6.1238442185
 H       -11.5575272436       -8.7196531590       -6.9360653148
 H       -13.1188321251       -8.8873630830       -1.7286586979
 H       -13.1263371186       -7.1532096599       -2.0564447328
 H       -10.7414088784       -6.9549687247       -1.8186569199
 H       -10.7009845912       -8.5400442551       -1.1327286529
 H       -10.2834800268       -7.0483518999        3.8665175273
 H       -11.8942522135       -7.3861289823        3.0670648110
 H       -11.6706121885       -5.9629850686        4.1144403295
 H        -8.9423909474       -8.2751570972        0.5839737871
 H        -9.7531747297       -8.5177968930        1.9677286854
 H        -8.3693699343       -7.4993648845        2.0410421245
 H        -8.8446357547       -5.1089643591        0.5412865219
 H       -10.0640373715       -5.1927431859       -0.6651928225
 H        -8.7404784529       -6.4078434641       -0.6667621894
 H       -14.9276644134       -8.9079268757       -3.5102208618
 H       -15.2844898440       -8.5802173168       -5.1273222546
 H       -14.8650508673       -7.2433679460       -3.9756215946
 H       -11.8548553354      -10.0821907244       -5.2203479281
 H       -13.4578976264      -10.1448621589       -6.1209272511
 H       -13.2981438743      -10.6606248666       -4.2995090431
 H        -9.5006826931       -3.9866669592       -9.4547982503
 H       -10.3387657492       -4.4814172558      -10.8016343447
 H        -8.6634254510       -4.5630051926      -10.8757571577
 H       -10.3638250621       -7.1466937563      -11.6815552724
 H       -11.5343250630       -6.4041398759      -10.8961078273
 H       -11.0607518348       -7.9463334103      -10.5165316772
 H        -4.8783206245       -9.1427641232       -6.1163538024
 H        -5.5631978224      -10.5984759639       -6.9769883430
 H        -5.4608749871      -10.3332931447       -5.1664845171
 H        -7.8457152579      -10.2155370908       -4.5408028871
 H        -8.0142214444      -10.9449598482       -5.9605236468
 H        -9.0737924759       -9.5644311404       -5.7610344021
 H        -2.9195422811       -4.1773863017       -1.4043862112
 H        -2.6742753262       -5.7921894701       -2.1420370189
 H        -3.4061291123       -5.6736429419       -0.5404319175
 H        -5.5501630194       -3.4784437092       -0.8322508513
 H        -5.9936262210       -5.0964798537       -0.4521513354
 H        -6.7903891725       -4.3164161525       -1.7771405197
 H        -4.8410543099       -0.5741496067       -5.5584119674
 H        -5.3332890986       -0.0423393949       -7.1012626060
 H        -3.7538852883       -0.7989096369       -6.8929077129
 H        -6.9957847479       -1.6755514658       -5.3921535038
 H        -7.3886650723       -2.9916229143       -6.5059555390
 H        -7.4227242421       -1.2048772921       -6.9649772683
 H        -1.9588366839       -4.1815401499      -12.7105653567
 H        -1.6429943162       -2.6957562912      -13.5158687523
 H        -3.2237588978       -2.9831103166      -12.9572837738
 H        -0.8763097612       -4.0654301522      -10.3506400027
 H        -0.0319884920       -2.5109298576      -10.1858126161
 H         0.2563281429       -3.4393555921      -11.5735068365
 H         3.0773814523       -0.9774352472      -14.2361205869
 H         3.3939580964       -0.0535573846      -12.7647421136
 H         4.3162521903        0.2926443793      -14.1710381351
 H         2.8953731215        2.5267627527      -12.7168853462
 H         2.4417546962        3.4324615583      -14.0471345058
 H         3.9849253566        2.6444115348      -14.0817435473
 H         5.4622865125        3.1603914838      -19.2738173904
 H         5.6895891096        2.0260755579      -20.6732357090
 H         7.1016727233        2.6239052575      -19.7505293457
 H         7.3213012773        0.1844323810      -20.1190137143
 H         6.0988684021       -0.9154815924      -19.5133473138
 H         7.3413663591       -0.5088079262      -18.5156963817
 H         8.7655279131        6.0651215574      -14.0282592083
 H         7.9103596215        7.4246606701      -14.4939362249
 H         8.3116149212        6.0396837624      -15.6488808486
 H         5.3805535890        5.5953842635      -12.5286391682
 H         6.0480938696        7.1887651366      -12.8093245407
 H         7.1997824221        5.7114962163      -12.2589695525
 H         3.0869778008        5.5482544047      -19.6155773324
 H         2.0506669643        4.5210475655      -18.5487325610
 H         3.8876824893        5.0430235789      -18.1357313370
 H         2.7786696064        8.8177043353      -18.2050412440
 H         2.2842521007        8.0449764048      -19.7322822749
 H         3.9488531714        7.7987579845      -19.0259912403
 H        -3.6674697458        7.7358480094      -15.5991100823
 H        -3.1583505902        9.1248884336      -14.6516328758
 H        -3.6246726110        7.6160703536      -13.7961128022
 H         0.0097830042        7.7930903844      -13.3211146473
 H        -1.3978733844        7.6827296814      -12.3969529525
 H        -1.2758164086        9.2283657874      -13.3717962915
 Na        1.1374842040        4.0982085111      -15.9241527770
 Na       -6.7190391569       -5.3706976382       -7.8517412877
