232

 C        -2.6278848757        4.9933122903      -14.5337024921
 C        -1.5232988899        6.0484867699      -14.7009456709
 O        -0.4055416983        5.5724884544      -14.9137589438
 C        -1.6902643642        7.5601431443      -14.6390311348
 C        -0.7890657933        8.0219096029      -15.7334755953
 O         0.3722262367        8.3723654738      -15.4851289878
 C        -1.3065511553        8.0246409535      -17.2583027156
 C         0.0897724809        7.8569673184      -17.9923851081
 C         0.7774733059        6.5204500925      -17.9495746335
 O         0.0727301053        5.5223495979      -17.9140367977
 C         2.3311348536        6.5666134365      -17.9630090906
 C         2.9251054199        6.6187911167      -16.4884238434
 O         2.8662718061        5.6475620141      -15.7558462258
 C         3.6740387596        7.9168664546      -15.9836835903
 C         4.5387902363        7.5005019942      -14.8019690833
 C         5.5543915996        6.5238330499      -15.3651126845
 O         5.6197172872        6.3538970425      -16.5454979989
 C         6.5958459957        5.7739688229      -14.3812559369
 C         6.5230147175        4.1976581057      -14.5511622420
 O         5.8104510773        3.5268537544      -13.7742509946
 C         7.1597309895        3.5119897437      -15.7824933007
 C         6.0397322088        2.7703940378      -16.5232922614
 C         6.4441821525        1.4293070500      -17.2029147151
 O         6.9666299081        0.5528610508      -16.5615602819
 C         5.8740360460        1.2165059599      -18.6441675307
 C         4.3788564171        1.0317007326      -18.2337937416
 O         3.5445657416        1.8159446322      -18.6225914751
 C         4.0320584249       -0.2109299782      -17.3047283458
 C         2.5425591929       -0.0609914444      -16.8872015694
 C         2.3414340896        1.2238148297      -15.9327962762
 O         2.1191418310        2.2400365665      -16.5404094688
 C         2.3748042878        1.1613469306      -14.4234868160
 C         0.8458848616        1.3688206661      -13.8624884242
 O         0.0121985882        1.9245051360      -14.5174839375
 C         0.3791088790        0.8243476538      -12.4645076313
 C         0.0224589464       -0.6616115648      -12.3047962101
 C        -1.4399316134       -0.9400237176      -11.7650477547
 O        -2.2348813038       -0.0584515496      -11.6810208336
 C        -1.7595048604       -2.5294862350      -11.4299819428
 C        -2.9187037138       -2.4939314784      -10.3679872097
 O        -2.5599776180       -2.5157166392       -9.1596052455
 C        -4.3727258916       -2.2812296759      -10.7622690840
 C        -5.0806076538       -1.4364314192       -9.6724535170
 C        -5.5870413911       -2.4027343226       -8.5578929644
 O        -6.3039403461       -3.3327764239       -8.7901734833
 C        -5.3866159757       -2.1246449506       -6.9549306167
 C        -4.5000291332       -3.3280906308       -6.4754230904
 O        -4.8414696050       -4.4696468938       -6.7752619117
 C        -3.2660756672       -3.1554648338       -5.6100352721
 C        -3.2985277527       -4.1279859952       -4.4291200549
 C        -4.5700641041       -3.8671526237       -3.4690233253
 O        -5.3981508057       -3.0071942575       -3.7347965381
 C        -4.6315031573       -4.8499738480       -2.3248839038
 C        -5.0191070403       -6.1854534979       -2.9878578497
 O        -4.2297659041       -6.8802750024       -3.5352340509
 C        -6.5799572435       -6.6737063548       -3.0192858064
 C        -6.8308232840       -7.9960121408       -3.7503745945
 C        -6.8246611769       -7.7306165440       -5.2025799798
 O        -6.6855397031       -6.6166253493       -5.6901917672
 C        -6.9023106843       -8.9308776945       -6.1143938690
 C        -7.1220913819       -8.4765193854       -7.6430658862
 O        -6.2154263518       -7.8160531741       -8.1267111199
 C        -8.1605499503       -9.1426073697       -8.5619530347
 C        -8.3340642130       -8.5889909232      -10.0068764380
 C        -8.2786095189       -7.0369682363      -10.0171045244
 O        -7.2355629534       -6.3716185548      -10.1113514417
 C        -9.6349422234       -6.2982132793       -9.8571410974
 C        -9.9761818336       -6.2600929703       -8.3122133227
 O        -9.1715463164       -5.7990358325       -7.4921713557
 C       -11.3547643111       -6.5732128642       -7.8532060759
 C       -11.4403081036       -7.5150499690       -6.6758733366
 C       -12.7295839098       -7.3341847454       -5.8323314165
 O       -13.2294140105       -6.2524979085       -5.7998642434
 C       -13.1634515262       -8.4098156681       -4.7353449342
 C       -12.2044991848       -8.1656916140       -3.4767267734
 O       -10.9940850581       -8.3407923621       -3.7101701712
 C       -12.6032156494       -7.9242601259       -2.0114005811
 C       -11.2930479969       -7.7192532539       -1.1939643760
 C       -11.4943805801       -7.1995176981        0.2509561112
 O       -12.6472918666       -7.2381432166        0.6920679625
 C       -10.2108362500       -6.7015783777        1.0076257305
 C       -10.6297516335       -5.7831781576        2.2322469183
 O       -10.5624370790       -4.5663453776        2.1795492741
 C       -11.1105552598       -6.4298541654        3.4953930183
 C        -9.2944618640       -7.8307250506        1.6523080801
 C        -9.1910943442       -5.8802086455        0.0308848798
 C       -14.6581898058       -8.3284795937       -4.3774405532
 C       -13.0210306359       -9.8413730394       -5.3356939413
 C        -9.4192245006       -4.8317711354      -10.3031640583
 C       -10.7254386109       -6.8859789594      -10.7040039444
 C        -5.5189712395       -9.7003130100       -6.1157896565
 C        -8.0637269858       -9.8978567110       -5.5827472734
 C        -3.2517598545       -5.1617427096       -1.6076151852
 C        -5.7511585079       -4.5046330766       -1.2819484944
 C        -4.7528167097       -0.7323621890       -6.5537960765
 C        -6.7924159403       -2.2282021947       -6.3229930187
 C        -2.1669662056       -3.3314172858      -12.6918399982
 C        -0.4685263429       -3.2391819935      -10.7358630393
 C         3.0664571541       -0.0969205528      -13.9204199374
 C         3.0037588834        2.3800996429      -13.8209490113
 C         5.9751123953        2.3991839959      -19.6068969656
 C         6.6082278251       -0.0101590377      -19.2945322059
 C         8.0935967896        6.2582643457      -14.6487009030
 C         6.2673748129        6.0865562063      -12.8933396075
 C         3.0757596940        5.2634475434      -18.5186195646
 C         2.7361399695        7.8019621704      -18.8357668025
 C        -3.1669614056        8.0137030718      -14.6957815319
 C        -1.0471792599        8.0573592606      -13.2942280009
 H        -3.2150357742        5.0598778471      -15.4779828410
 H        -3.3469703470        5.3876919500      -13.7845807587
 H        -2.1816089527        3.9726528894      -14.4138734424
 H        -1.8108324982        8.9651737092      -17.6419109562
 H        -2.0628775233        7.2302862818      -17.4663107908
 H         0.7485786946        8.6285288763      -17.5818514034
 H         0.0340248626        8.2265021230      -18.9986412549
 H         3.0565345131        8.7323071638      -15.5807274403
 H         4.3870548098        8.4192374206      -16.6933541481
 H         4.0712998143        7.1678144279      -13.9026419472
 H         5.1721374225        8.2636749284      -14.4031827627
 H         7.9375291170        2.7298695688      -15.4599023146
 H         7.7216189384        4.1962463975      -16.4237482319
 H         5.7259095691        3.3338441276      -17.3826669504
 H         5.1599022545        2.6753613045      -15.8996299805
 H         4.6603313787       -0.3380270710      -16.3986485482
 H         4.1714002588       -1.0935649121      -17.9199302738
 H         2.2280173610       -1.0560901127      -16.3488717619
 H         2.0353525236        0.1301059087      -17.8627346605
 H        -0.5676423919        1.3075464642      -12.2990835165
 H         1.2277731817        1.1352829448      -11.7875932414
 H         0.8216436819       -1.1099207662      -11.7008743576
 H         0.0720750055       -1.3879075645      -13.1898401543
 H        -4.9519312256       -3.2440686099      -10.7448770594
 H        -4.3616079139       -1.7897456280      -11.7838282756
 H        -6.0660613114       -0.9134012152      -10.0030585883
 H        -4.2437050553       -0.8132703739       -9.1677679679
 H        -3.3584332569       -2.0908792483       -5.2993666952
 H        -2.4719165708       -3.3411916527       -6.2885347977
 H        -2.3993228462       -4.1569204315       -3.8285583294
 H        -3.4922566262       -5.0845896424       -5.0130886838
 H        -7.2234326986       -5.9106785267       -3.3931677835
 H        -6.7488950102       -6.9572924732       -1.9179309707
 H        -7.8173092095       -8.2170678873       -3.4714969003
 H        -6.2128792449       -8.8562600188       -3.6207376629
 H        -9.2094917082       -9.0907529109       -8.0807292104
 H        -7.9729781944      -10.2049222690       -8.6575936523
 H        -9.3050993504       -8.9239461415      -10.3611167295
 H        -7.5194778492       -8.9145726964      -10.6359804294
 H       -11.8701710601       -7.0522719932       -8.6596692690
 H       -11.9515698491       -5.6443009556       -7.6550299013
 H       -10.6108424931       -7.5708781792       -5.9764868320
 H       -11.5469328778       -8.5208360861       -7.0912035537
 H       -13.1122721185       -8.9601836760       -1.7567443784
 H       -13.1761889724       -7.0351185218       -1.7608196490
 H       -10.5989499458       -7.0824105058       -1.7440805085
 H       -10.7645282599       -8.6713887856       -1.0281181977
 H       -10.2344209999       -6.3783728209        4.1343857659
 H       -11.5057751946       -7.4329869834        3.4653419338
 H       -11.8768366600       -5.8157506028        3.9402327382
 H        -9.0640526773       -8.5801397331        0.9445489941
 H        -9.7324681024       -8.2585569393        2.4572070150
 H        -8.3887016713       -7.3338612559        2.0545989462
 H        -8.7336742678       -5.0521076862        0.6530061931
 H        -9.5894110429       -5.3017510113       -0.7918869849
 H        -8.4042079527       -6.5366939225       -0.2882271496
 H       -15.0398238097       -8.9379763882       -3.5086937419
 H       -15.1411747553       -8.7840931211       -5.1842347264
 H       -14.9355998564       -7.3013598411       -4.2449117719
 H       -11.9784878916       -9.8845171700       -5.5991905992
 H       -13.7620907638       -9.9281555265       -6.1827580563
 H       -13.1367735315      -10.5053872923       -4.4731394805
 H        -9.0220450834       -4.1435739319       -9.5340807115
 H       -10.3751578482       -4.3727431983      -10.6582966002
 H        -8.7417785832       -4.7408178284      -11.1286959306
 H       -10.5490125344       -7.1062395401      -11.7734944215
 H       -11.5564611978       -6.2151023577      -10.7667855192
 H       -11.1553055249       -7.8308724994      -10.5160571588
 H        -4.7085834219       -8.9635943432       -6.3511614492
 H        -5.6135596361      -10.6150954419       -6.7313080186
 H        -5.1848840161       -9.9685703925       -5.0647435073
 H        -7.7278751699      -10.3691094510       -4.7189655774
 H        -8.2250890799      -10.8168186295       -6.2052055612
 H        -9.0613915170       -9.4248343617       -5.3613946409
 H        -2.8748614001       -4.1758447421       -1.3826578564
 H        -2.5568714405       -5.7889835186       -2.1942604004
 H        -3.4998183911       -5.7232694666       -0.7169636008
 H        -5.4878339600       -3.6414510448       -0.7245308419
 H        -5.7406385158       -5.3345801911       -0.5426879852
 H        -6.7354919061       -4.4317283378       -1.6214606850
 H        -4.9682107222       -0.5037666082       -5.5039605012
 H        -5.1331935327        0.1266426195       -7.1083964501
 H        -3.6814564074       -0.8064262206       -6.6744118469
 H        -6.8949673582       -1.7432245656       -5.3314318227
 H        -6.9134388443       -3.3169907809       -6.1807090222
 H        -7.5721906478       -1.7156057682       -6.8992152515
 H        -2.1382705417       -4.3787636270      -12.4349885678
 H        -1.4878280407       -3.1148063285      -13.4927974828
 H        -3.1948312317       -3.0244826763      -13.0517360965
 H        -0.6310121382       -4.2846706062      -10.5403506981
 H         0.0368448169       -2.6971536776       -9.9445343809
 H         0.3075512994       -3.1925995376      -11.4634064150
 H         2.9240649865       -0.9755850561      -14.6593755734
 H         2.8880795727       -0.4187755553      -12.8998917622
 H         4.1519203611        0.1322140098      -13.8952497443
 H         2.9475179652        2.5058841649      -12.7682184653
 H         2.4199785615        3.2111487853      -14.1698485584
 H         3.9700965348        2.6000111360      -14.2316404660
 H         5.2038410305        3.0781760603      -19.3940771182
 H         5.8345917240        1.9710858788      -20.6416453680
 H         6.9680947876        2.9208806074      -19.6339437484
 H         7.2403782173        0.3252910819      -20.1992843437
 H         6.0130183533       -0.8598759551      -19.6048468201
 H         7.2735135726       -0.4335922569      -18.6214355168
 H         8.8880673735        5.8788099855      -13.9464930473
 H         8.0079377851        7.3133917838      -14.4686102580
 H         8.4590860825        6.0045742993      -15.5868437865
 H         5.3976279481        5.5799163869      -12.5107431484
 H         5.9921102974        7.0885896304      -12.8014864030
 H         7.1785607567        5.8233757513      -12.3423268492
 H         3.2551844977        5.3409278380      -19.5851817537
 H         2.3471001308        4.4198797976      -18.4028330244
 H         4.0436200831        5.1207952014      -18.0022815580
 H         2.5000721985        8.8192899577      -18.4387941589
 H         2.2219805753        7.8441057166      -19.8606237846
 H         3.8441460864        7.8013815016      -18.9605126435
 H        -3.7773490864        7.2589597882      -15.2576438403
 H        -3.3759572705        8.9420330163      -15.2882588114
 H        -3.5619132063        8.0412690867      -13.6655871804
 H         0.0153818740        7.8611215387      -13.3330601937
 H        -1.3378939491        7.5063964118      -12.4363655965
 H        -1.3696217802        9.0323272958      -13.3387153328
 Na        1.1336976949        4.1997225358      -15.9767748177
 Na       -6.8264653073       -5.3813003314       -7.8066652138
