232

 C        -2.6403271096        4.8973560586      -14.9061688818
 C        -1.5005031458        5.8495040396      -14.6682087273
 O        -0.3419957170        5.4889493099      -14.4676783851
 C        -1.7224347332        7.4654679743      -14.5359591703
 C        -0.5739488659        8.0023354031      -15.5037308320
 O         0.5575159849        8.3834753015      -15.2426601553
 C        -1.0824037113        8.0296971332      -17.0300584539
 C        -0.0476881302        7.8459555885      -18.2195595691
 C         0.7849076011        6.5491122153      -17.9657020529
 O         0.2589525885        5.5941898978      -17.4422524187
 C         2.3562096281        6.4893370588      -18.1502281306
 C         2.9222033947        6.6549035314      -16.6445070235
 O         2.4121089196        5.9021094004      -15.8444379227
 C         3.7958643360        7.7744219706      -16.1605300382
 C         4.7743012273        7.4658448065      -15.0885543642
 C         5.8421586300        6.3931116572      -15.4815865015
 O         5.8045993824        5.9109993186      -16.5788235406
 C         6.7414958956        5.7510564907      -14.2492153182
 C         6.5164751885        4.3028982224      -14.2933049978
 O         5.6808304933        3.7405409782      -13.5626760459
 C         7.0223757278        3.4890572790      -15.5778626300
 C         5.9591741926        2.7392498444      -16.4683155614
 C         6.4307531460        1.4977670381      -17.1420736217
 O         7.2814884067        0.7388776936      -16.7284229177
 C         5.6661388069        1.2754893688      -18.5081125801
 C         4.1363475179        1.1354477069      -18.3085249309
 O         3.3030154307        1.8116018932      -18.8524572006
 C         3.6919146091       -0.1091582889      -17.5410161295
 C         2.3338829211       -0.0394987205      -16.8033782031
 C         2.3117550844        1.1782619224      -15.8209299182
 O         2.2456149054        2.3012004582      -16.2873683989
 C         2.2859092827        1.0267751546      -14.2370429014
 C         0.6969990245        1.3301011235      -13.9330595380
 O         0.0465958760        2.1941694604      -14.4925644193
 C         0.1191285197        0.7258592507      -12.6628910000
 C        -0.0498370135       -0.7592518801      -12.5286515757
 C        -1.3035986019       -1.1806571457      -11.8166877392
 O        -2.2156217137       -0.3919571954      -11.8548286881
 C        -1.5824948037       -2.5849148399      -11.3010512571
 C        -2.8588972633       -2.6106010105      -10.2392735908
 O        -2.5396197303       -2.5224616636       -9.0532140156
 C        -4.2085868876       -2.4449458133      -10.7252997715
 C        -5.2130238010       -1.8601618863       -9.7323249535
 C        -5.6378160622       -2.7342584165       -8.6135982455
 O        -6.1999018165       -3.7877568159       -8.9887750775
 C        -5.4433981068       -2.1949789659       -7.1619934438
 C        -4.4890432522       -3.4192686981       -6.5029359128
 O        -4.7923692975       -4.5602284418       -6.5952806129
 C        -3.2948759286       -2.9423196189       -5.6486340678
 C        -3.0057057947       -3.9439641439       -4.4547406534
 C        -4.2463488993       -3.9545231334       -3.4843730073
 O        -5.1899880655       -3.2301488699       -3.6349658839
 C        -4.3840983257       -4.9935154365       -2.2711379952
 C        -4.9799942670       -6.3019556244       -2.9856462774
 O        -4.2899680529       -7.0544026089       -3.5810354907
 C        -6.5897981025       -6.6826558607       -2.7306871459
 C        -6.9267465881       -7.8620625239       -3.6310318861
 C        -7.0162564798       -7.5796157228       -5.1964418795
 O        -7.3311896802       -6.4958242866       -5.6268185325
 C        -6.8869103515       -8.8429745896       -6.1986333367
 C        -7.0360681030       -8.4439352198       -7.6494011836
 O        -6.1634543746       -7.6848102648       -8.1271124980
 C        -8.2172583803       -9.0255688633       -8.4540750958
 C        -8.3473024945       -8.5622625402       -9.9106522140
 C        -8.2961934342       -7.0100106812      -10.1159277206
 O        -7.1819031098       -6.4789508474      -10.3446147791
 C        -9.6021130918       -6.2217572152       -9.9912011946
 C       -10.0671554615       -5.9951267311       -8.4428264128
 O        -9.3394200804       -5.3368084531       -7.7401033490
 C       -11.4148553335       -6.4125216718       -7.8990280032
 C       -11.2859338271       -6.9953367805       -6.5310887553
 C       -12.6909761773       -7.1314524107       -5.8388171307
 O       -13.5402323606       -6.3381476543       -6.1027457339
 C       -13.0159226247       -8.1706813019       -4.6977654394
 C       -11.8668558333       -7.9695704441       -3.6488129754
 O       -10.7566486492       -8.5088418048       -3.8783591633
 C       -12.3324144359       -7.5758273070       -2.1506645834
 C       -11.1968604308       -7.7218936092       -1.1148232527
 C       -11.4932735056       -7.0968510876        0.3384773575
 O       -12.6064736145       -7.0813386874        0.8333891002
 C       -10.2300639424       -6.7101032987        1.1588070542
 C       -10.6423639274       -5.6117509606        2.2472414677
 O       -10.6080883457       -4.5342285787        1.6688495969
 C       -11.2767789861       -5.8513103822        3.5980248012
 C        -9.7529626362       -8.0797307849        1.7442115843
 C        -8.9933217783       -6.1840986731        0.3314990780
 C       -14.4558397397       -7.9021923805       -4.2014012102
 C       -12.9586131594       -9.6368866219       -5.2953110954
 C        -9.3672053699       -4.8212526904      -10.6025905273
 C       -10.7262267868       -6.8507128569      -10.8388149846
 C        -5.3608150503       -9.4291222740       -5.9805484613
 C        -7.7900479225       -9.9192595281       -5.5756439137
 C        -2.9887928905       -5.1858955646       -1.5257571883
 C        -5.4175121630       -4.3889249847       -1.3032094514
 C        -4.8782465154       -0.7606387646       -7.1828061606
 C        -6.7640399809       -2.1189934327       -6.4450565258
 C        -1.9548953502       -3.4241910277      -12.5798554497
 C        -0.3492863055       -3.2754534611      -10.6366864795
 C         2.7774492669       -0.3443911274      -13.7771506845
 C         3.1292050940        2.1665240402      -13.5601974986
 C         5.9274948672        2.4492694969      -19.4320367787
 C         6.1626906895       -0.0049046877      -19.1985572079
 C         8.1626645618        6.3448877655      -14.6385180077
 C         6.4236972697        6.3663356767      -12.8816483366
 C         2.5518276637        5.0432097641      -18.7058997678
 C         2.9858918140        7.4805920752      -19.0899198400
 C        -3.1341919670        8.0085935883      -14.9276130927
 C        -1.4988595518        7.8683717186      -13.0200218055
 H        -3.4900966885        5.2341757812      -15.4597101145
 H        -3.0254397130        4.7047413482      -13.9327938226
 H        -2.1097136689        4.1210669864      -15.3899486967
 H        -1.7369981588        8.8429550436      -17.0871355028
 H        -1.7397917069        7.1462160883      -17.0933993509
 H         0.5866201188        8.6969232550      -18.5150004100
 H        -0.5777887421        7.7163339538      -19.1428935478
 H         3.1428820104        8.5236707717      -15.7440801993
 H         4.3383598750        8.2063431185      -16.9866770620
 H         4.3283624197        7.1854179388      -14.0865678487
 H         5.3296775760        8.3388769163      -14.6978562366
 H         7.8261128279        2.8488045592      -15.1598219655
 H         7.5993127369        4.1904623463      -16.1245751984
 H         5.4591080036        3.3832869468      -17.1734361896
 H         5.0681470039        2.4804491443      -15.7792945392
 H         4.4415730574       -0.3283587256      -16.7793187325
 H         3.7503324466       -0.8909017379      -18.2901190916
 H         2.0381530890       -0.9514421757      -16.2977471845
 H         1.6428050036        0.1351056442      -17.5997907720
 H        -0.9806850477        1.0946047072      -12.6630386222
 H         0.7508847991        1.2270491072      -11.9806073077
 H         0.8043015106       -1.3096180593      -12.0964486091
 H        -0.1203459095       -1.3229530566      -13.4265990563
 H        -4.5479240125       -3.4113230753      -11.1227841814
 H        -4.2602550575       -1.7781631235      -11.5749212380
 H        -6.0746054429       -1.7237688225      -10.2666173897
 H        -4.7111575271       -0.9961638641       -9.3917550867
 H        -3.5444294766       -1.8891494031       -5.2626599410
 H        -2.5346864887       -2.9302461878       -6.3608842510
 H        -2.0594754091       -3.6315866366       -3.9572316517
 H        -3.0930254093       -4.9834145580       -4.8898143357
 H        -7.0819434835       -5.7851296852       -2.8583928561
 H        -6.4605308808       -6.9730571784       -1.7444656100
 H        -8.0213854555       -8.2995583214       -3.4767304050
 H        -6.1984690689       -8.6856390564       -3.4279845454
 H        -9.0990020565       -8.7625517648       -7.9490257860
 H        -8.2256618452      -10.0914592450       -8.4479246306
 H        -9.3082112599       -8.9217647343      -10.3137924908
 H        -7.5228776029       -8.9774853879      -10.4254544395
 H       -11.9857692323       -7.0485218261       -8.5903493103
 H       -12.0773486222       -5.5208119497       -7.8833581953
 H       -10.6990391234       -6.3800483073       -5.8065990582
 H       -10.7077714933       -7.9036366276       -6.5682396942
 H       -13.1331053754       -8.2103863324       -1.8371447633
 H       -12.5706088499       -6.5909373386       -2.2288753353
 H       -10.3605398745       -7.0967080038       -1.4144991278
 H       -10.8559493861       -8.7566345971       -1.0428865144
 H       -10.4508276270       -5.7470365927        4.3665214369
 H       -11.6908422138       -6.9110239520        3.5459136058
 H       -12.0893723977       -5.2249504512        3.8740532126
 H        -9.1024600925       -8.5280328660        0.9705557338
 H       -10.5652489132       -8.7124350043        1.9868554795
 H        -9.1024689394       -7.9586450281        2.6917716685
 H        -8.1653894724       -6.3100238211        1.0017747929
 H        -8.9221084224       -5.1190816693        0.2731097139
 H        -8.6932327075       -6.7707863436       -0.5363925356
 H       -14.7203820509       -8.7833553854       -3.6313964346
 H       -15.1557881815       -7.9825399303       -5.0271052490
 H       -14.5337934317       -7.0305853511       -3.5820583566
 H       -12.0347965376       -9.9867010172       -4.9480214523
 H       -13.0780008261       -9.4607108222       -6.3496065022
 H       -13.7068827745      -10.3314685549       -4.9235084244
 H        -8.3054639583       -4.6867568887      -10.7858112615
 H        -9.6579126852       -4.0394100122       -9.9378253427
 H        -9.8274231490       -4.5829116380      -11.5318078879
 H       -10.5016949273       -6.9985446795      -11.8900402729
 H       -11.6370216043       -6.3839727602      -10.9004700080
 H       -11.0224522982       -7.8663104786      -10.6318953009
 H        -4.6761501339       -8.7717556136       -6.3953001141
 H        -5.3641551315      -10.4433123542       -6.3184199657
 H        -5.0233167741       -9.5400824763       -4.9669696685
 H        -7.7313784713       -9.9897209841       -4.5076854629
 H        -7.5922831662      -10.8746867569       -6.0113535385
 H        -8.8798365838       -9.7174991303       -5.7364984857
 H        -2.5526101861       -4.2416275289       -1.3343380500
 H        -2.3415488926       -5.8820793677       -2.1144478400
 H        -3.2630962268       -5.6801508586       -0.6099967645
 H        -5.0358543958       -3.5194604348       -0.8133775271
 H        -5.7010020881       -5.1180631956       -0.4824240871
 H        -6.3834555961       -4.1152432131       -1.7900463292
 H        -4.6699862478       -0.4048898200       -6.1564813865
 H        -5.5950387713       -0.0704128275       -7.6055767699
 H        -3.9915910519       -0.7477190296       -7.8043703721
 H        -6.6369854100       -2.0913182448       -5.3585443286
 H        -7.3066350420       -2.9916181316       -6.6602044756
 H        -7.3089582213       -1.2236315419       -6.7404612189
 H        -2.7850386507       -4.0871515712      -12.3426526264
 H        -1.1117222155       -3.9610973918      -12.8820638626
 H        -2.2042537392       -2.7678774123      -13.4110554382
 H        -0.6922686542       -4.2112380649      -10.2228867537
 H         0.0381043425       -2.5516094049       -9.9048163142
 H         0.5764728894       -3.4747332247      -11.2127016708
 H         1.9269925683       -1.0629334153      -13.7602827531
 H         3.1618326026       -0.2811623412      -12.8024650149
 H         3.5041435824       -0.7579531539      -14.4784063318
 H         2.7966384875        2.3394167624      -12.5727559009
 H         2.8839591449        3.1603648944      -14.0662007929
 H         4.2495157990        2.0636774093      -13.6292983968
 H         5.3649578642        3.2658859483      -19.2197512037
 H         5.6740226305        2.1674231064      -20.4796572732
 H         7.0256585428        2.7185235997      -19.4412560043
 H         7.2767275851       -0.1138409032      -19.3867620607
 H         5.6282911973       -0.0745787790      -20.1586558764
 H         5.9323109137       -0.8581823376      -18.7213155887
 H         8.9346391736        5.6183413249      -14.4173313676
 H         8.3395447264        7.2984813487      -14.0988397362
 H         8.2866679210        6.5266562676      -15.7073469323
 H         5.3679152591        6.5302850833      -12.6328494710
 H         6.8335641135        7.4221657093      -12.8935737498
 H         7.0672538321        5.7488905239      -12.1339039624
 H         1.7348252001        4.7548692476      -19.2982964265
 H         2.4748224644        4.2330573457      -17.9098237239
 H         3.4908136564        5.0050357703      -19.2775021718
 H         2.8568679726        8.4778067259      -18.8222088399
 H         2.5410080814        7.5993366314      -20.0431814167
 H         4.0242962706        7.2513683048      -19.1155947392
 H        -3.9263554702        7.3326898964      -14.8344412760
 H        -3.2449412057        8.4398942277      -15.9367232503
 H        -3.3916211201        8.6891326031      -14.1916672610
 H        -0.5940825363        7.2663977074      -12.6323591458
 H        -2.3565409250        7.3553360398      -12.5555369775
 H        -1.5128894509        8.9730838007      -12.9138863644
 Na        0.7592019842        3.8945842906      -15.9061889230
 Na       -6.8244269115       -5.4739560485       -7.6677778938
