232

 C       -21.1581295268       -6.5704073684       -1.5867298031
 C       -21.1358086674       -5.2020223533       -2.2767124814
 O       -20.5710300161       -4.2738154948       -1.7773542157
 C       -22.0068424165       -5.0261061450       -3.6500254408
 C       -20.8435305345       -4.6492847738       -4.6445179711
 O       -20.2107029637       -3.6093785593       -4.3916598571
 C       -20.4789547732       -5.3981693397       -5.9258012579
 C       -18.9947855186       -5.4967396648       -6.3874439414
 C       -17.9227201065       -4.9602326235       -5.2811339536
 O       -17.9793419230       -5.4562074556       -4.2038864774
 C       -16.7175929725       -4.0173395149       -5.7301567355
 C       -16.5611742949       -2.9894178160       -4.4682372902
 O       -17.5126360096       -2.2729941841       -4.2987173619
 C       -15.1276145644       -2.7368188188       -3.7639431843
 C       -15.1467509700       -2.0687186771       -2.4318782396
 C       -15.7889432052       -2.9412100224       -1.3602719586
 O       -16.9649136444       -3.3100902518       -1.4015160303
 C       -14.9397619271       -3.2661481778        0.0076555113
 C       -13.6680459795       -4.1378913712       -0.4222605909
 O       -12.7709888364       -3.5537716662       -0.9607993523
 C       -13.6937734991       -5.6021481179       -0.1218439723
 C       -12.5863583002       -6.3712533784       -0.8398992715
 C       -12.7304270821       -6.1324676287       -2.4009273651
 O       -13.7266560337       -5.7614678715       -3.0001279298
 C       -11.4858143773       -6.5632176137       -3.2549008136
 C       -10.2015507629       -5.9622181065       -2.6108959430
 O       -10.2054900943       -4.8186573314       -2.2597923300
 C        -8.7864149171       -6.8525541929       -2.5041593288
 C        -7.5599084878       -6.0009341632       -2.3434089177
 C        -7.5735246167       -4.8839927600       -3.3719438273
 O        -8.4537191637       -4.8782314811       -4.2050420994
 C        -6.4095317213       -3.7558309349       -3.3219361200
 C        -4.9777601456       -4.1045420239       -3.7553989138
 O        -4.2481496843       -4.5769587539       -2.9316966559
 C        -4.5097465059       -3.9700288158       -5.2347266121
 C        -3.1758536420       -4.5972908539       -5.5160936288
 C        -2.0009798881       -3.7467844026       -4.9164547135
 O        -2.0074954242       -2.5378895305       -5.0114358472
 C        -0.6662528163       -4.3919436195       -4.4979374485
 C        -0.0064561598       -4.7621656788       -5.8730523492
 O        -0.1652382286       -5.8793601183       -6.2762366470
 C         0.6928469956       -3.6627929758       -6.7452107045
 C         0.4791841579       -4.0904928894       -8.2088995820
 C         1.1951558602       -3.1597141693       -9.1463049753
 O         2.1387922688       -2.4912220564       -8.7862469279
 C         0.5904291523       -3.1862804995      -10.5508821314
 C         1.2522867772       -1.9201741481      -11.2840716831
 O         0.6089253364       -0.9430746991      -11.5081314247
 C         2.7954128479       -1.9802633137      -11.5735877931
 C         3.0995479358       -1.5756274280      -13.1179757217
 C         4.4625620791       -1.0764087937      -13.2986889863
 O         4.9293323215       -0.0322348542      -12.8741303342
 C         5.4022219384       -1.9173466109      -14.1639548312
 C         6.6141695937       -0.8991319358      -14.7353676199
 O         6.6100162003       -0.7613132605      -15.9517325017
 C         7.6754287597       -0.1977737916      -13.8152569651
 C         9.0391432125        0.1088558773      -14.4155147788
 C         9.2364001430        1.2723869328      -15.3417402021
 O         9.7777104062        1.1138412448      -16.4041300589
 C         8.8065446721        2.7324256039      -14.7627347639
 C         7.3152230248        2.9684059597      -15.2719732631
 O         6.3973021914        2.3180177668      -14.9260467405
 C         7.1648606138        4.0127491929      -16.4056401159
 C         5.6950588452        4.2628765031      -16.7658463684
 C         5.0689947950        3.2787687558      -17.7821120677
 O         5.3107490509        2.1026810955      -17.9778403622
 C         3.7064690745        3.7520241790      -18.4765888178
 C         3.9954494534        5.0036921153      -19.3765189269
 O         3.7152464061        6.1060973789      -18.9773542716
 C         4.6983968328        4.9600701457      -20.6793867776
 C         6.0552095811        5.5496739076      -20.5242875036
 C         6.5826313640        5.9851268225      -21.9018106087
 O         5.9213974075        6.6351637037      -22.6663463776
 C         8.0897505690        5.7531387943      -22.3967197739
 C         8.4831389282        4.2439421423      -21.9001403497
 O         7.9565432920        3.2003898571      -22.2934206739
 C         9.7514093858        4.0322858448      -20.9842821901
 C         9.9935947832        2.6513683152      -20.2511068592
 C         8.6159513875        1.8817965627      -20.1032850674
 O         7.7626033484        2.2413124858      -19.3353240971
 C         8.7021506606        0.2747148355      -20.7624754984
 C         7.2492203756       -0.3503247684      -20.6317377389
 O         6.8283826476       -0.5715289531      -19.5069184154
 C         6.2653946949       -0.5643722185      -21.8438137116
 C         9.0510621218        0.3657809122      -22.3067324165
 C         9.7138137752       -0.5281677413      -19.9168994861
 C         8.4978302574        5.9880510652      -23.8454075279
 C         8.9840743637        6.7250457372      -21.5985450089
 C         3.1868111924        2.5812517974      -19.4695110117
 C         2.6928047437        4.1097714225      -17.4155506951
 C         8.8759027807        3.0092698047      -13.2782974409
 C         9.8198995821        3.7175321959      -15.3928792299
 C         5.9489298381       -3.1260265983      -13.3599570100
 C         4.7259320350       -2.3825250970      -15.4334664980
 C         1.0513120701       -4.5485904906      -11.1412909719
 C        -0.8810506510       -3.0695987856      -10.6191315614
 C         0.2177526827       -3.2888500813       -3.7308704670
 C        -0.8489040850       -5.6194257296       -3.6983761229
 C        -6.8831409357       -2.6460346033       -4.3736660299
 C        -6.3100309278       -3.2135897334       -1.9408284065
 C       -11.5794561337       -8.1672728493       -3.4008288581
 C       -11.6245077160       -5.9880180881       -4.6394547020
 C       -14.3306931962       -1.9076328872        0.4819327451
 C       -15.9316971252       -4.0035805750        0.9705230545
 C       -15.4977776054       -4.8122214817       -6.1245356086
 C       -17.1152314458       -3.0811246592       -6.8751027367
 C       -22.6944323802       -6.3881369248       -3.9586026075
 C       -23.0677090835       -3.8874041475       -3.4008657348
 H       -21.8731759421       -6.4744318064       -0.8239205332
 H       -20.1648382008       -6.8860911172       -1.2666865780
 H       -21.4445977233       -7.3599825763       -2.1833364892
 H       -20.9825450087       -4.8909912142       -6.8105966808
 H       -20.9503432744       -6.3581510109       -5.8707687995
 H       -18.7359297767       -4.9717761810       -7.2915455431
 H       -18.7420975120       -6.5093535564       -6.5389812339
 H       -14.5939213456       -2.0319753792       -4.4265220305
 H       -14.6477199941       -3.7638286092       -3.6401975626
 H       -15.7570245774       -1.1002976895       -2.5259761840
 H       -14.2000743485       -1.7785300466       -2.1770466025
 H       -14.6696175168       -6.0894749357       -0.3335459979
 H       -13.5743942631       -5.6974105614        0.9844656827
 H       -12.7475884019       -7.4679181448       -0.6135151070
 H       -11.6543094592       -5.9880835204       -0.5537679303
 H        -8.8092504400       -7.4833979339       -3.4239402284
 H        -8.9687456589       -7.5377280236       -1.6530990285
 H        -6.6818649639       -6.5790900010       -2.5451747253
 H        -7.5825519885       -5.6256250931       -1.3019494955
 H        -4.4074436326       -2.9100764415       -5.5456518342
 H        -5.3745237381       -4.3608144212       -5.8319815933
 H        -3.0691151730       -4.7779185433       -6.6090743560
 H        -3.1884130197       -5.6910347067       -5.1196674302
 H         1.8001516078       -3.5678955905       -6.4277907431
 H         0.3861722656       -2.6777922593       -6.5849432598
 H        -0.5549390457       -4.4664799682       -8.2946665926
 H         0.9533317564       -5.0362327595       -8.2940023385
 H         3.3479162583       -2.8820791031      -11.2926047422
 H         3.3927816337       -1.2242745691      -10.9744879007
 H         2.3381389738       -0.8442681438      -13.4270823572
 H         2.9532984457       -2.4399282989      -13.7237924261
 H         7.8413870140       -0.7649235142      -12.8852816962
 H         7.2237905370        0.7516253414      -13.3106534767
 H         9.3412007508       -0.8288401190      -14.8770907669
 H         9.6852783207        0.2324296548      -13.4859605673
 H         7.6745848721        3.5525527579      -17.2934042526
 H         7.6577935738        4.9210698352      -16.1973843810
 H         5.4711083017        5.2900231845      -17.2471271775
 H         5.0735276761        4.1504389885      -15.7682064158
 H         4.1437080820        5.4986526555      -21.5428363287
 H         4.8701156776        3.9679442923      -21.0458922485
 H         6.6973930477        4.8651706914      -20.0333290816
 H         5.8066358666        6.5729398830      -20.2284258895
 H         9.7206192919        4.6877857803      -20.1349027834
 H        10.6073962597        4.3231159073      -21.5682422826
 H        10.4030024599        2.6527677728      -19.2482545295
 H        10.6419917471        1.9852537277      -20.9147916418
 H         5.9729398670       -1.6275175661      -21.9056339539
 H         6.7080056387       -0.3971866788      -22.7322316696
 H         5.3016755125       -0.1859472532      -21.6629350368
 H         8.8126926694       -0.5886521065      -22.7915200742
 H        10.0384536431        0.6531218557      -22.3023820643
 H         8.5290373959        1.1694023728      -22.8218255937
 H        10.7517975634       -0.1488334808      -19.9837230848
 H         9.7610874991       -1.6512769607      -20.1840992860
 H         9.3483405513       -0.4008535508      -18.8762402553
 H         7.8654897643        5.3487707688      -24.5379939258
 H         9.5106971060        5.7632803396      -23.8550089492
 H         8.4070840303        7.0417333743      -24.1942023904
 H         9.9612015646        6.8529229702      -22.1413895082
 H         9.1623802896        6.5274586082      -20.4966249003
 H         8.4251469850        7.7200504972      -21.6255507381
 H         2.5663160608        1.8799066681      -18.7969002553
 H         4.0221978002        1.9798579600      -19.8360560570
 H         2.6129211641        3.0418991896      -20.3013868170
 H         2.9529150883        5.0522226209      -16.9408628906
 H         2.8233467594        3.4223777257      -16.5677455757
 H         1.7046102667        4.0262408263      -17.7747597148
 H         9.1122219060        4.0594614476      -13.0765308212
 H         9.7052979502        2.4557882613      -12.9156825200
 H         8.0574633760        2.8496659249      -12.5376749309
 H        10.8186771764        3.6371182954      -14.9371441709
 H         9.5119716685        4.7974182800      -15.1734781835
 H         9.8783106396        3.8447667094      -16.4464005840
 H         5.5504394541       -4.0374289076      -13.5633779547
 H         5.7983773420       -3.0263846238      -12.3454994816
 H         6.9913171640       -3.2983201948      -13.5290863875
 H         4.2447112511       -3.3291954591      -15.3737457541
 H         5.4387718857       -2.4752991947      -16.2096063015
 H         4.0104066052       -1.6929667000      -15.9114115224
 H         0.4829808564       -5.3483236054      -10.6156980889
 H         2.1298530401       -4.7012589219      -11.1242497288
 H         0.7232753905       -4.5449526165      -12.2297756002
 H        -1.2889213135       -2.1122570135      -10.3028664004
 H        -1.2991104727       -3.7823177343       -9.9331696588
 H        -1.1094794502       -3.4223590101      -11.6509724311
 H        -0.1917318689       -2.7175159463       -2.8491958825
 H         0.6403080946       -2.5598477802       -4.4297108450
 H         1.0964418666       -3.7127587524       -3.2923465129
 H        -1.2925677937       -6.4148359244       -4.2023462664
 H        -1.4700862817       -5.3594457155       -2.8238087491
 H         0.0252034212       -6.0772086078       -3.2880760769
 H        -6.4220005927       -2.7000813928       -5.3440388709
 H        -6.5521618402       -1.6263288222       -4.1461307273
 H        -7.9891589616       -2.7123159710       -4.6238433435
 H        -7.2916795227       -3.3172833083       -1.3418478469
 H        -6.1067370487       -2.1498784027       -1.9054207502
 H        -5.6157671478       -3.7942534100       -1.3745987668
 H       -12.4913293906       -8.4119644029       -3.8392518801
 H       -11.5964891319       -8.5621732619       -2.4166402568
 H       -10.9071184644       -8.5800185895       -4.2183342045
 H       -12.6127109556       -6.2380961992       -5.1534799893
 H       -10.8204550516       -6.4038243174       -5.2251601422
 H       -11.5122384951       -4.9568919150       -4.7062467533
 H       -15.0096671281       -1.1135056898        0.2048474623
 H       -13.4479079657       -1.7519288943       -0.0358320743
 H       -14.2151967962       -1.8359195650        1.4990653418
 H       -15.3676618792       -4.5193647085        1.7672805789
 H       -16.4508133949       -4.7927284192        0.4364245032
 H       -16.6400441933       -3.2637272308        1.3738237322
 H       -15.0148302549       -4.3543810488       -6.9618940564
 H       -15.9791980706       -5.7114693220       -6.6467293713
 H       -14.6966877171       -4.9679147597       -5.4258340569
 H       -18.0479638695       -2.4244942123       -6.7498951456
 H       -17.1721070554       -3.6855075148       -7.7110853090
 H       -16.5067471025       -2.2871156713       -7.0801002144
 H       -22.0766209914       -7.1427279503       -4.2361199670
 H       -23.4728366743       -6.1683211199       -4.6754717747
 H       -23.2274227479       -6.7276601521       -3.0266787206
 H       -23.0722399278       -3.0454938182       -4.1229543685
 H       -22.7749928480       -3.3302201202       -2.4540974083
 H       -24.1233776530       -4.3030457359       -3.3986311588
 Na      -18.5514295446       -3.8326302746       -2.8849128284
 Na        7.1817484540        0.8156871505      -17.4224458664
