232

 C        -2.5164390636        4.8208898707      -15.4211642733
 C        -1.5184492696        5.7453193019      -14.6259369495
 O        -0.5527213864        5.2658309759      -14.0675600937
 C        -1.7205694604        7.3431519756      -14.5651990283
 C        -0.7741483573        8.0684090664      -15.5420581964
 O         0.3165573948        8.4450320752      -15.1861411820
 C        -1.0546692849        8.3294622428      -17.0792841398
 C         0.2858546213        8.0398542320      -17.7791540016
 C         0.6622543040        6.5082667883      -17.7811173840
 O        -0.1422812254        5.6865376214      -17.3633320472
 C         2.1531965258        6.1955752876      -18.1451904194
 C         2.9511060109        6.4334752712      -16.6865965186
 O         2.6277936358        5.6543808849      -15.8100520388
 C         3.9800220803        7.4456218850      -16.5628573803
 C         4.7407151358        7.3354857436      -15.3255282641
 C         5.8202590027        6.3189370710      -15.4969625305
 O         5.9663492290        5.8813749415      -16.6539070649
 C         6.7775819923        5.8274677801      -14.3913898742
 C         6.3975991427        4.2464353237      -14.1972094846
 O         5.7980682422        3.8358166979      -13.2116145072
 C         6.8656934041        3.2276873911      -15.2760485750
 C         5.7712159508        2.7207201802      -16.2035977807
 C         6.3271207589        1.7088178009      -17.1607992625
 O         7.4234210690        1.2648090897      -16.9562831730
 C         5.5514271640        1.3202302678      -18.4539571944
 C         3.9887530343        1.0720166913      -18.4456745090
 O         3.2191018248        1.7668714359      -19.0710534759
 C         3.5503037518       -0.1652240871      -17.6000376408
 C         2.1568452002        0.2179128835      -16.8996671636
 C         2.3370233017        1.2191301107      -15.7610771517
 O         2.3756600088        2.4273781315      -16.0531681404
 C         2.2047753639        0.9125959290      -14.2284644111
 C         0.6781257888        1.3698641686      -13.8549692692
 O         0.0624485410        2.3290656670      -14.3062066377
 C        -0.0342342959        0.5757559503      -12.6332763810
 C        -0.1386775474       -0.9670466994      -12.5683128826
 C        -1.4922765479       -1.3851985271      -11.8848239743
 O        -2.4420094039       -0.6094131512      -11.6888772391
 C        -1.6441412663       -2.8403978041      -11.2428246932
 C        -2.8849383347       -2.6973481935      -10.2142135953
 O        -2.6628523196       -2.5280612060       -9.0372620768
 C        -4.2403929917       -2.8072532487      -10.8526603883
 C        -5.2368060739       -1.9418852681      -10.1214897797
 C        -5.5224846657       -2.8379731766       -8.8686602452
 O        -6.1386387495       -3.8984745832       -9.0877207364
 C        -5.3146846770       -2.3756526987       -7.3583821040
 C        -4.5897714594       -3.5310419356       -6.6067067921
 O        -4.9813614867       -4.6445079055       -6.4562995109
 C        -3.3506177432       -3.0921876530       -5.7677624504
 C        -3.1012173718       -4.0020581747       -4.5428256087
 C        -4.2570057200       -3.9692854391       -3.5693259179
 O        -5.2727141878       -3.2906100154       -3.5731234054
 C        -4.2254552856       -4.9983355708       -2.4136238016
 C        -4.9894513937       -6.2507068097       -3.0405288606
 O        -4.3225801123       -7.1035437539       -3.5316532920
 C        -6.5236092284       -6.4242991582       -2.9059611604
 C        -7.0524003011       -7.7374808142       -3.4613049810
 C        -7.2613251015       -7.6222071841       -5.0170360348
 O        -7.4918289555       -6.4966451093       -5.4086693516
 C        -6.8276677773       -8.7864271634       -5.8695524129
 C        -7.0872503399       -8.3852137335       -7.4242676943
 O        -6.1954944538       -7.7759035027       -8.0316438943
 C        -8.3705915735       -8.6985021941       -8.1686469307
 C        -8.2143015825       -8.3267214541       -9.6762612707
 C        -8.3109156423       -6.8261677292      -10.0432679054
 O        -7.2824854137       -6.1831721227      -10.3393742556
 C        -9.7451218475       -6.1308359392      -10.0924505985
 C        -9.9974291293       -5.9248517382       -8.5247094897
 O        -9.1226497660       -5.4372080224       -7.8448471106
 C       -11.3024796150       -6.4757672001       -7.8534442439
 C       -11.2284288749       -6.4838908424       -6.3384505941
 C       -12.6364597509       -6.7991036283       -5.8431819856
 O       -13.6067131580       -6.4428148660       -6.4369941291
 C       -12.8634440018       -7.7895069916       -4.6428646369
 C       -11.6921524278       -7.7626312598       -3.6553814142
 O       -10.6471734199       -8.3115840296       -3.9833059043
 C       -11.8841291051       -7.2396008608       -2.2350214886
 C       -10.7239298596       -7.6287596983       -1.2533596435
 C       -11.2329095466       -7.0688312041        0.1327785673
 O       -12.4405967152       -6.9644729524        0.2830695427
 C       -10.2722568721       -6.8295837300        1.2623083407
 C       -10.8016277317       -5.5085272176        2.0308675739
 O       -10.6024310947       -4.4634694391        1.4244301965
 C       -11.4366288596       -5.5637755214        3.3618677623
 C       -10.3369322628       -7.9792655037        2.2790823524
 C        -8.8149052034       -6.5930817028        0.7538457207
 C       -14.2444103168       -7.5686892508       -4.1010832354
 C       -12.8172601340       -9.1751410453       -5.3685364894
 C        -9.5276550224       -4.7772022440      -10.7079789018
 C       -10.7967801425       -6.8551983813      -10.9021613602
 C        -5.2891254236       -8.9541135448       -5.6818382272
 C        -7.5418431430      -10.1508319456       -5.5608520962
 C        -2.8207858837       -5.4460868307       -1.9908725067
 C        -4.9119343723       -4.4063913701       -1.2079956908
 C        -4.7632696070       -0.9858818412       -7.2645598030
 C        -6.7190378293       -2.3301649538       -6.8634703700
 C        -1.8377693395       -3.9074396249      -12.3118460851
 C        -0.2629573719       -3.0872545428      -10.4661680496
 C         2.7260544575       -0.5096489021      -13.7825594400
 C         2.9424188259        1.9608639721      -13.4350855306
 C         5.8027076862        2.4598869798      -19.5295615667
 C         6.1755857511        0.0121654943      -19.0083215948
 C         8.3226288017        6.0004745777      -14.8269709181
 C         6.5579499378        6.5157173978      -13.0012514761
 C         2.4798536569        4.7789268509      -18.5906718675
 C         2.6456288629        7.1900494818      -19.1845759578
 C        -3.2456697475        7.7311317277      -14.8134861783
 C        -1.2019410542        7.7963266489      -13.1602779341
 H        -2.5389938722        5.1504880549      -16.5062354600
 H        -3.5369099052        5.0535936265      -15.0810745298
 H        -2.1661153300        3.7841457858      -15.4840005267
 H        -1.4510934275        9.3255866376      -17.2348318538
 H        -1.8081644810        7.5317156504      -17.3674208389
 H         1.1169882876        8.5786304380      -17.2568401750
 H         0.3052744006        8.5119730744      -18.8030260045
 H         3.3743076440        8.3803862511      -16.5615510932
 H         4.5875401447        7.4115061606      -17.4792104582
 H         4.1623813212        6.9676912142      -14.4633001626
 H         5.1191730736        8.2879878058      -14.9580619699
 H         7.2864068871        2.4239649115      -14.6701470281
 H         7.7363298600        3.5784588848      -15.8409466432
 H         5.1994359487        3.4709771161      -16.7209911170
 H         4.9446130855        2.2235602320      -15.6976861772
 H         4.3125108795       -0.4586994970      -16.8649508907
 H         3.3217639933       -1.0903236514      -18.1822405533
 H         1.5947827957       -0.6257807200      -16.7322329348
 H         1.6143168152        0.7966993416      -17.6856152426
 H        -1.0912122683        1.0076876737      -12.7605368222
 H         0.3288131460        0.9256472057      -11.7412986391
 H         0.7492267702       -1.5610105178      -12.2019458056
 H        -0.2895911640       -1.3892506545      -13.5467821486
 H        -4.6968440132       -3.8070320902      -10.9137447724
 H        -4.2710549009       -2.5869458783      -11.9104519100
 H        -6.0541430388       -1.9258515398      -10.7432273120
 H        -4.7678746667       -0.9597586297       -9.8818010399
 H        -3.5931098681       -2.0439490769       -5.4969479732
 H        -2.4095793219       -3.0700472395       -6.3533751189
 H        -2.1701101463       -3.6641843667       -4.1340294245
 H        -3.1261602184       -4.9973582310       -4.8271045232
 H        -6.8743019870       -5.5027769068       -3.5104483276
 H        -6.7592025495       -6.2404906232       -1.8443576032
 H        -7.9576763262       -7.8424427846       -2.7544116663
 H        -6.4458495326       -8.5817180803       -3.3315674601
 H        -9.1830121244       -8.0333033521       -7.7414528975
 H        -8.7870378108       -9.7826298691       -7.9832344261
 H        -9.0602095561       -8.7661379108      -10.3071959494
 H        -7.2688888875       -8.7988832422      -10.0420660643
 H       -11.6066997729       -7.3858701015       -8.4085407235
 H       -12.1031378022       -5.8167593792       -8.1191587085
 H       -11.0435348030       -5.3908147500       -6.2033407757
 H       -10.3632921678       -6.9097151088       -5.8089359051
 H       -12.7980637217       -7.7625708419       -1.9086012268
 H       -11.9540383825       -6.0951390304       -2.2052386895
 H        -9.7534901309       -7.2589970802       -1.6681329638
 H       -10.6564437404       -8.7211878089       -1.0350597033
 H       -10.9200440329       -6.2205975860        4.0471607144
 H       -12.4385009078       -5.9322714898        3.1221915111
 H       -11.5986797701       -4.6593954583        3.8162721544
 H       -10.1110354321       -8.9664775317        1.8618953618
 H       -11.3311836262       -8.0553351755        2.6880054684
 H        -9.4791186384       -7.8492834928        3.0229211868
 H        -8.1062513045       -6.2474015737        1.4359043847
 H        -8.6637808781       -5.8838584423       -0.1072997145
 H        -8.5330065113       -7.6437238362        0.4488377428
 H       -14.4167933474       -8.1561233369       -3.2172893590
 H       -14.9936124151       -7.8419377578       -4.9305452050
 H       -14.4818347139       -6.4947711803       -3.8975216850
 H       -11.8276292124       -9.2670840882       -5.8737305762
 H       -13.7166672818       -9.1105823988       -5.9809936529
 H       -12.9508078593      -10.0200415876       -4.6526910120
 H        -8.5212949169       -4.6535230347      -11.1753684398
 H        -9.6889396490       -3.9562144034      -10.0216877183
 H       -10.2518078985       -4.5585339354      -11.5330608688
 H       -10.7122358032       -6.8069832437      -12.0144031132
 H       -11.8081749629       -6.4752314235      -10.8594591860
 H       -11.1741200445       -7.8922626220      -10.6327022261
 H        -4.8365870416       -7.9663393683       -5.6368480335
 H        -4.7900043487       -9.6628538395       -6.4409687693
 H        -5.0332690706       -9.6021833095       -4.7939702098
 H        -7.2358429721      -10.4591554068       -4.5193208035
 H        -7.1071513084      -10.7977431957       -6.2437690821
 H        -8.6407840905      -10.2931618730       -5.5982690174
 H        -2.3108202477       -4.6289842255       -1.5046973612
 H        -2.3144857381       -5.6764590436       -2.9483406585
 H        -2.9050693373       -6.3154049417       -1.3471829458
 H        -4.2885156214       -3.6534589333       -0.8083232873
 H        -5.2109371684       -5.0503263486       -0.4136760752
 H        -5.8108550587       -3.8352072511       -1.5343611243
 H        -4.6285085926       -0.6809597341       -6.2140801712
 H        -5.4867211303       -0.3303131930       -7.7276882529
 H        -3.8494132304       -0.8475663669       -7.8572299305
 H        -6.7616518180       -2.1113234732       -5.7650121375
 H        -7.2366493364       -3.2646304714       -7.0261207196
 H        -7.2752113144       -1.6242024434       -7.5428331709
 H        -1.6162491520       -4.8953495399      -11.8018560124
 H        -1.0990957447       -3.7203017296      -13.1115843824
 H        -2.8757253651       -3.9828002177      -12.6711437250
 H        -0.3105883894       -4.0762340658      -10.0349774257
 H        -0.0515558458       -2.3831948223       -9.6553044144
 H         0.5917023346       -3.1683850220      -11.1557771226
 H         2.3833800181       -1.3392956211      -14.3577531085
 H         2.4597362170       -0.6342252758      -12.7390357611
 H         3.8100783286       -0.4736775076      -13.9509556335
 H         2.8667055860        1.8368199054      -12.3921602531
 H         2.5985913266        2.9787271461      -13.7156417943
 H         4.0193765955        1.9269660738      -13.6443952207
 H         5.7503174524        3.4204558355      -19.1363310360
 H         5.0970797492        2.4588642537      -20.3603143297
 H         6.8598960723        2.3862274186      -19.8943176634
 H         7.2452234785       -0.0636821668      -18.6865848227
 H         6.1600472946       -0.0075389388      -20.1345827371
 H         5.7485722302       -0.8717351641      -18.6427036648
 H         8.9380806426        5.6443297222      -14.0630557503
 H         8.5730955981        6.9969231392      -15.2482347608
 H         8.5071331556        5.4080651461      -15.7650876215
 H         5.9357990655        5.9683433211      -12.4198133540
 H         6.1735935201        7.4941258889      -13.1285422952
 H         7.5076784865        6.6588134709      -12.5003386948
 H         2.0960802137        4.5115533486      -19.5027493287
 H         2.1790269212        3.9439032586      -17.8631017703
 H         3.5426922274        4.7774526395      -18.6389159176
 H         2.5764244156        8.2434957592      -18.8281871672
 H         2.0576212139        7.2807212677      -20.1100333524
 H         3.7010899049        7.0188106290      -19.5360591024
 H        -3.6191218378        8.0847685904      -13.8525113183
 H        -3.9376296356        6.9258410173      -15.2531089395
 H        -3.4591588507        8.5813468954      -15.4701725565
 H        -0.1303488706        7.5146150851      -13.1510853235
 H        -1.8553923215        7.4099168165      -12.4541775537
 H        -1.1989995757        8.8597571590      -13.1823077682
 Na        0.8367879602        4.3208878957      -15.6391973565
 Na       -6.7548108114       -5.6164983089       -7.6200962897
