232

 C        -2.3399762836        4.8382392579      -15.5465180750
 C        -1.5849160132        5.8112969062      -14.6713160053
 O        -0.6659925532        5.2946065095      -14.0325832201
 C        -1.7891627194        7.3108520470      -14.5133175672
 C        -0.8094045716        8.0322913761      -15.4750584701
 O         0.2795593384        8.4392185693      -15.1074406059
 C        -1.1276338807        8.3736770448      -17.1187989097
 C         0.1965413189        7.9468195277      -17.8812608704
 C         0.6026972969        6.5545741617      -17.7214998833
 O        -0.1765176622        5.6926478005      -17.3614689745
 C         2.1517185312        6.1418799908      -18.1118083136
 C         3.0025005807        6.3409567601      -16.7769634695
 O         2.7663170940        5.5780193411      -15.8418267634
 C         3.9876649215        7.5444385145      -16.6099705179
 C         4.8100780372        7.2377614110      -15.3290427298
 C         5.9660038932        6.2157000456      -15.6138130644
 O         6.1302120058        5.7778479943      -16.7115560779
 C         6.7419914232        5.7020615835      -14.3960427710
 C         6.3454569265        4.2206136175      -14.1319716353
 O         5.7645476573        3.8810280841      -13.1064466891
 C         6.7058263500        3.1983221143      -15.2389701941
 C         5.6067531057        2.7718108455      -16.1787450362
 C         6.3514669980        1.7244947548      -17.1832010548
 O         7.5143084768        1.3464582349      -16.9579424164
 C         5.6102847119        1.3035115592      -18.5772805750
 C         4.0391461434        1.0803532596      -18.3313811758
 O         3.2246980370        1.7144446623      -18.9991881496
 C         3.4943126688       -0.0524740719      -17.5134156850
 C         2.1417731643        0.3110332067      -16.8692050297
 C         2.2352823714        1.3242722424      -15.7708115793
 O         2.4616294943        2.4929870883      -16.0038308153
 C         2.1009442600        0.9585712877      -14.1954928634
 C         0.5628339385        1.2360413393      -13.8178227874
 O         0.1417496955        2.2433610498      -14.3390115806
 C        -0.0562769864        0.5452989607      -12.6424826084
 C        -0.2519838810       -0.9745069761      -12.7162745528
 C        -1.4889503601       -1.4143178761      -11.9420406693
 O        -2.3617395057       -0.6717977433      -11.7043372903
 C        -1.5697392758       -2.8885340321      -11.2637853596
 C        -2.8719688884       -2.8000581983      -10.3442879346
 O        -2.8159092773       -2.6237533183       -9.1196026431
 C        -4.1833868342       -2.8478259485      -10.9479806854
 C        -5.1516370968       -2.0810866659      -10.0271376197
 C        -5.5803726480       -2.9341839228       -8.8490345362
 O        -6.0826772183       -4.0092850161       -9.1015623828
 C        -5.4330695139       -2.3798667926       -7.4038092883
 C        -4.5837529814       -3.4467657612       -6.5521517942
 O        -5.0184140019       -4.5688701852       -6.4558031922
 C        -3.2960572859       -3.1262863613       -5.7982149864
 C        -3.1842648550       -4.1613187927       -4.6305719963
 C        -4.3926972754       -4.0774577534       -3.6325821554
 O        -5.2748071331       -3.2421249967       -3.6572220740
 C        -4.1983326141       -5.0691171721       -2.4073955698
 C        -4.9691656904       -6.3224024726       -2.9490825366
 O        -4.4157081844       -7.1785161690       -3.5946183534
 C        -6.5770083078       -6.2650861199       -2.8624290353
 C        -7.0596317281       -7.6132202347       -3.4118256930
 C        -7.2081339659       -7.5497345024       -4.9510416954
 O        -7.5457617783       -6.5116130330       -5.5341975191
 C        -6.7958090494       -8.8334877000       -5.8850874100
 C        -7.0114706594       -8.3375360048       -7.4027206614
 O        -6.0831482015       -7.7515800920       -7.9757952976
 C        -8.3624637523       -8.4892752966       -8.1273235749
 C        -8.2004336673       -8.3587852357       -9.6310298581
 C        -8.3049327986       -6.8714569499      -10.0766930149
 O        -7.3064181381       -6.2360672040      -10.2403777471
 C        -9.7343020101       -6.1207062846      -10.0699045426
 C        -9.9925561862       -5.9694809475       -8.5477882692
 O        -9.1984496163       -5.4327820797       -7.8044216669
 C       -11.2924464375       -6.4003927416       -7.8626810367
 C       -11.2723457292       -6.3011761157       -6.3538466141
 C       -12.6512033713       -6.6387394019       -5.8792602625
 O       -13.6011421600       -6.3628391526       -6.5880793346
 C       -12.9031062677       -7.6974264776       -4.6847825820
 C       -11.6248834373       -7.8296919734       -3.7225865036
 O       -10.5144519614       -8.2308941576       -4.1925228498
 C       -11.7561391359       -7.1694231357       -2.3203264589
 C       -10.6395314866       -7.4789057849       -1.2695046899
 C       -11.1997588117       -7.1116010259        0.1853388371
 O       -12.4039199106       -6.9039382120        0.2593230072
 C       -10.2523000078       -6.8685846434        1.3843256099
 C       -10.7813878372       -5.4220594528        1.9568760211
 O       -10.5699616849       -4.4119811223        1.3518210778
 C       -11.5818680549       -5.2986217785        3.2922310322
 C       -10.3852109727       -8.1313012310        2.3493398928
 C        -8.7757288069       -6.7641364549        1.0033510656
 C       -14.2951411009       -7.4678306553       -4.1043409954
 C       -12.7241235489       -9.1478185756       -5.3424817055
 C        -9.5580585551       -4.6804754713      -10.6717658910
 C       -10.7838151233       -6.9017798911      -10.7359569715
 C        -5.3564030415       -8.8688486621       -5.6546815320
 C        -7.4914927779      -10.1807769232       -5.4677866721
 C        -2.6663002218       -5.3764916425       -2.1604190474
 C        -4.8363687196       -4.5427120541       -1.1197853145
 C        -4.8010499605       -0.9793134782       -7.4419758946
 C        -6.8089709815       -2.3663470816       -6.7283939418
 C        -1.6797205263       -4.0646932201      -12.2198040928
 C        -0.3286216653       -3.1001004347      -10.3040282767
 C         2.4876805444       -0.4314075678      -13.8264678507
 C         3.0289445661        2.0084809834      -13.4161698586
 C         5.7762973663        2.5181710584      -19.5281833569
 C         6.1766609050       -0.0272658567      -19.0968414104
 C         8.2230928971        5.9643167568      -14.8892009631
 C         6.6511402754        6.5598984758      -13.0709369611
 C         2.3361660659        4.6439446742      -18.5305934253
 C         2.6620159342        7.1022831161      -19.2033539886
 C        -3.2940820352        7.7743506885      -14.6511158624
 C        -1.2822272020        7.7552695509      -13.0874003538
 H        -2.0396603606        4.8598847941      -16.5949189718
 H        -3.3987376717        5.0807651316      -15.5301670825
 H        -2.0604914870        3.8289899865      -15.2661249040
 H        -1.2473962925        9.4103424507      -17.2678573645
 H        -1.9999124316        7.8162782445      -17.4491944470
 H         1.0626227981        8.6587412660      -17.6381804185
 H         0.0782857110        8.1270486308      -18.9681449550
 H         3.5047327048        8.5010465071      -16.5900545723
 H         4.6560076358        7.4559795654      -17.4685950935
 H         4.2693056133        7.0802332446      -14.3455286422
 H         5.3493285939        8.1929147869      -15.0950594511
 H         7.1844169534        2.2957542523      -14.7964563748
 H         7.4620776404        3.6173069775      -15.8288496612
 H         5.1743195769        3.5367513195      -16.7835949534
 H         4.6634347576        2.3049817189      -15.7742073559
 H         4.1619761110       -0.3966566721      -16.6986543713
 H         3.2659655195       -0.9559038025      -18.0751564044
 H         1.7286856877       -0.6632276115      -16.6157799202
 H         1.5146796035        0.6911363846      -17.5742776453
 H        -0.8921248051        1.2457507542      -12.3692977232
 H         0.6647810081        0.6639120936      -11.8417488949
 H         0.5766920661       -1.4534556839      -12.1610593063
 H        -0.1503424513       -1.3973308052      -13.6781864831
 H        -4.5492059940       -3.8688174086      -11.0342596327
 H        -4.2399921415       -2.6266089793      -11.9868954608
 H        -5.9576997745       -1.6659024423      -10.5781039567
 H        -4.5791732035       -1.3066026884       -9.6659832859
 H        -3.3672750464       -1.9971713771       -5.6199840893
 H        -2.5123213073       -3.2502043642       -6.4913640716
 H        -2.2548010800       -3.9948889898       -4.1378228157
 H        -3.3026731324       -5.1807890141       -5.1038217281
 H        -6.9065067563       -5.3944352073       -3.3486588609
 H        -6.7682627654       -6.1612468684       -1.8023185173
 H        -7.9558598552       -7.8132141814       -2.7326536948
 H        -6.3194489730       -8.5122713761       -3.2568025951
 H        -9.1189936526       -7.7614180224       -7.7741233115
 H        -8.8306948111       -9.4620815291       -7.8869075566
 H        -8.9579325380       -8.9918611378      -10.1965726645
 H        -7.2092999403       -8.7648664939       -9.8865736497
 H       -11.4063242432       -7.4666111975       -8.0945545900
 H       -12.1489876573       -5.9971174810       -8.4333712929
 H       -10.7850270795       -5.3497677410       -6.0092813279
 H       -10.5510732497       -7.0306774619       -5.9681434086
 H       -12.7091172267       -7.4841953398       -1.8823903884
 H       -11.7505142943       -6.1588247391       -2.5370962695
 H        -9.7239252579       -6.8982226873       -1.5203090629
 H       -10.4093220387       -8.5758715911       -1.2878670451
 H       -11.2425284434       -6.0489132552        4.0044992387
 H       -12.6461175299       -5.4083834791        3.1264886196
 H       -11.4638304324       -4.3013216659        3.7477104745
 H       -10.1009709358       -9.0498536671        1.7044824198
 H       -11.4240450480       -8.3421763588        2.6407967271
 H        -9.5745573748       -8.1949393377        3.1707747593
 H        -8.2858471396       -6.1358983778        1.7904608741
 H        -8.5373679776       -6.2302973073        0.0612862171
 H        -8.2457985751       -7.7195218936        0.9992897279
 H       -14.3884834370       -8.2085485380       -3.2350144244
 H       -15.0406282418       -7.5779873804       -4.8574338565
 H       -14.4898483706       -6.4498912261       -3.7094995231
 H       -11.9506475786       -8.9706438661       -6.0625856723
 H       -13.7112998629       -9.3231425420       -5.8240313856
 H       -12.4956812830       -9.9584416883       -4.6677012588
 H        -8.6152924987       -4.5252877110      -11.2791759940
 H        -9.6279702130       -3.8669778218       -9.8887991156
 H       -10.3797373720       -4.4368116661      -11.3457687802
 H       -10.8295738100       -6.7859223456      -11.8582506641
 H       -11.8396477164       -6.7257852158      -10.5711545680
 H       -10.8670451648       -7.9297850670      -10.5132255084
 H        -4.9887115158       -7.8152563441       -5.7242994333
 H        -4.7720523795       -9.5096398997       -6.2939758491
 H        -5.1415695829       -9.3668336869       -4.7011302051
 H        -6.9000309841      -10.5051987170       -4.7064769532
 H        -7.5267371860      -10.9649378454       -6.2691176887
 H        -8.5013264065      -10.1078358179       -5.0321535874
 H        -2.1394720640       -4.5274151652       -1.7645457606
 H        -2.2600823475       -5.6987606959       -3.1412701613
 H        -2.6569390872       -6.1995995074       -1.4536138190
 H        -4.1700675827       -3.7859826301       -0.7407424106
 H        -5.0623834116       -5.2512322975       -0.2591527955
 H        -5.7293896385       -3.9772283397       -1.3001415077
 H        -4.7599136301       -0.6643532446       -6.3583344536
 H        -5.4590683313       -0.2686130273       -7.9887218076
 H        -3.7899914560       -0.8551940480       -7.8711714223
 H        -6.6363134048       -1.8868017062       -5.7661632583
 H        -7.1772818788       -3.3509071824       -6.4907868734
 H        -7.5803965697       -1.9512867800       -7.3649523090
 H        -1.2368362211       -4.9601716541      -11.7392648480
 H        -1.1085232545       -3.8216133986      -13.1325829651
 H        -2.7840025139       -4.3310244146      -12.4271152767
 H        -0.5190052480       -4.0267344113       -9.7520516518
 H        -0.1290493769       -2.3467250492       -9.5134185956
 H         0.5460356373       -3.3290464110      -10.9112944728
 H         1.8520493469       -1.1943638147      -14.3680766563
 H         2.3726026659       -0.5183747746      -12.8229378446
 H         3.4566392502       -0.6012123757      -14.1619136820
 H         3.2101803299        1.7853323138      -12.3790941540
 H         2.5448302048        2.9864884041      -13.5601155575
 H         4.0648586214        2.1186392106      -13.8029465364
 H         5.5741876914        3.4056993768      -19.0220762060
 H         5.1937760011        2.5703586503      -20.4359300415
 H         6.8397444943        2.6281871496      -19.7356044349
 H         7.3229226551       -0.1042267513      -19.1444315754
 H         5.7966725858       -0.3021280645      -20.0822423196
 H         5.9018672518       -0.7548812427      -18.3798310495
 H         8.9388323580        5.6456470350      -14.0657224032
 H         8.2798476796        7.0354292540      -15.1507615790
 H         8.4944338188        5.5610678379      -15.8422238013
 H         5.9092901964        6.1940192810      -12.2690824989
 H         6.5225272590        7.5654209407      -13.3788435125
 H         7.5885622834        6.6466965884      -12.5597145265
 H         2.2369481713        4.4418473867      -19.5963703114
 H         1.7015894522        4.0152243681      -17.9846584541
 H         3.3504151898        4.3596588439      -18.2342352308
 H         2.9021841582        8.1246985974      -18.9382585570
 H         1.9421106985        7.1941167048      -20.0467839120
 H         3.5262284242        6.7082142413      -19.7163321229
 H        -3.5536835561        8.2647805153      -13.7260727976
 H        -4.0437962981        7.0361132293      -14.9446512551
 H        -3.4375295305        8.5132614980      -15.4216943857
 H        -0.2123318259        7.4948027358      -13.1297506912
 H        -1.9750664837        7.1809110915      -12.4549927554
 H        -1.3495172329        8.7933052040      -12.8830388761
 Na        0.9522596255        4.3776823457      -15.5781367629
 Na       -6.7558377763       -5.6147419030       -7.6798730129
