232

 C        -2.3623656547        4.9493125131      -15.6944427174
 C        -1.5522315360        5.8044967498      -14.6561356925
 O        -0.5898222413        5.3529114403      -14.0265744253
 C        -1.8813203586        7.3282931907      -14.4629214576
 C        -0.7914297425        8.0828880601      -15.5122316809
 O         0.2477972940        8.4064145444      -15.0633341746
 C        -1.1085169380        8.1911016951      -16.9951328798
 C         0.0382849179        7.9688499126      -18.0172716485
 C         0.6063270367        6.5482376785      -17.8040588961
 O         0.0000937284        5.6271627258      -17.2716406709
 C         2.1106035603        6.1646651805      -18.0596741342
 C         2.9391322016        6.3041851266      -16.7968777116
 O         2.9485822658        5.5527087035      -15.8343980290
 C         3.9707147683        7.5362725369      -16.6791307187
 C         4.9317058476        7.2671411859      -15.4107955805
 C         5.9873904225        6.1124724378      -15.6105690831
 O         6.2402127008        5.6783959107      -16.7130991409
 C         6.8429329060        5.7401994789      -14.4116384372
 C         6.3332220590        4.2452142308      -14.0823925299
 O         5.7208351442        3.9764090348      -13.0883731399
 C         6.6862371937        3.1391979368      -15.1725462218
 C         5.6706049674        2.7300320176      -16.2607136783
 C         6.2845956456        1.7435157472      -17.2600665925
 O         7.3970158436        1.3980883030      -17.0430274535
 C         5.5761111019        1.3013887896      -18.5277118706
 C         4.0531969082        1.1312793169      -18.3108347069
 O         3.2784523781        1.8014928217      -18.9545438766
 C         3.5365065881       -0.0048408052      -17.2996290205
 C         2.1252698027        0.3103546480      -16.7095683641
 C         2.2428003481        1.4426912865      -15.7352782521
 O         2.4737802585        2.5937789642      -16.0685333581
 C         2.1063578064        1.0402378916      -14.2304512689
 C         0.6034726034        1.3688582965      -13.7399938734
 O        -0.0397028063        2.1985829321      -14.3707697721
 C        -0.0199015659        0.4983269007      -12.6509373266
 C        -0.2863965368       -1.0531558885      -12.8111270643
 C        -1.4931702203       -1.4782682852      -11.7924131074
 O        -2.3967927425       -0.6728285518      -11.7676232354
 C        -1.4743453257       -2.9825521790      -11.2043160933
 C        -2.8141163908       -2.9732976140      -10.4016259502
 O        -2.7175707138       -2.7961620240       -9.1953414927
 C        -4.2354540052       -2.8715660401      -11.1264886206
 C        -5.2613519088       -2.1838307675      -10.1304963712
 C        -5.6381760880       -2.9886566127       -8.8916281639
 O        -6.0140027027       -4.0787013661       -9.1377678414
 C        -5.5483030408       -2.3842963045       -7.3384793712
 C        -4.6602731786       -3.3818717028       -6.5758667391
 O        -5.1146201067       -4.5544627919       -6.5537101791
 C        -3.3631146837       -3.1189015406       -5.8434658038
 C        -3.2342961902       -4.1652766292       -4.7351385038
 C        -4.2418996255       -3.9496163538       -3.6034875849
 O        -5.2129616970       -3.2812576230       -3.8302839590
 C        -4.1406298873       -5.1026534851       -2.3959608984
 C        -4.9698991038       -6.3100556672       -2.9022480714
 O        -4.4362356909       -7.2205735358       -3.5444162201
 C        -6.5298084507       -6.2961462289       -2.8297542619
 C        -7.2002844402       -7.5820639091       -3.5265523652
 C        -7.2065480354       -7.4827943921       -4.9939168056
 O        -7.6031007033       -6.4766598912       -5.5639914959
 C        -6.7066451488       -8.7254281495       -5.8114979342
 C        -6.9535687171       -8.3638422194       -7.3021605550
 O        -6.0179834091       -7.8437971097       -7.8184405506
 C        -8.3069434096       -8.5419521030       -8.0357898086
 C        -8.2989416979       -8.3550269073       -9.6081083434
 C        -8.2901163970       -6.8569758641      -10.0246894481
 O        -7.2772599895       -6.2778422449      -10.2297786493
 C        -9.7124079510       -6.1514410859       -9.9857339100
 C        -9.9452214415       -5.8663915941       -8.4849186179
 O        -9.1218680369       -5.2974638905       -7.7510293297
 C       -11.2784148193       -6.3652702317       -7.9297919142
 C       -11.3374038822       -6.2417055208       -6.4455450322
 C       -12.7034292926       -6.7264051766       -5.9798874476
 O       -13.6929822604       -6.2430257413       -6.5378649004
 C       -12.8147094837       -7.6926521680       -4.7886064136
 C       -11.5090714141       -7.5716314333       -3.8417709415
 O       -10.4880364729       -8.1051750151       -4.2133308882
 C       -11.6565558769       -7.0674109635       -2.3629815816
 C       -10.6177970584       -7.3557984612       -1.3049537366
 C       -11.1936919292       -7.0363687428        0.1051396560
 O       -12.3679671852       -6.9132845327        0.3268322280
 C       -10.2425542119       -6.8444440357        1.4654603521
 C       -10.6946301579       -5.4333623439        1.9429396811
 O       -10.4380027855       -4.5004575791        1.2143496708
 C       -11.6852104656       -5.1700303460        3.1788828047
 C       -10.5562668369       -8.0856504589        2.3894897184
 C        -8.7378706590       -6.8395936167        1.2834625470
 C       -14.0960721725       -7.4602693412       -4.0285547980
 C       -12.8250537044       -9.1477103764       -5.4737021302
 C        -9.5762763354       -4.6823573763      -10.6039439213
 C       -10.8002714894       -6.9929624684      -10.6549230790
 C        -5.1453368964       -8.9063735165       -5.6897566144
 C        -7.5136495951       -9.9984626405       -5.4796464789
 C        -2.6530382550       -5.5071094759       -2.2305034173
 C        -4.7682964864       -4.6255730647       -1.0346816208
 C        -4.8159876046       -0.9593378208       -7.3814356755
 C        -6.9647085758       -2.3409686324       -6.5715808926
 C        -1.5047730786       -4.1569012195      -12.2086985644
 C        -0.3590801995       -3.0730615005      -10.1706562601
 C         2.4718136469       -0.4902084120      -13.9706986329
 C         2.9963592245        1.9688816440      -13.3878658173
 C         5.8059676509        2.4579952154      -19.4928998211
 C         6.1981157699        0.0493501407      -19.1503918569
 C         8.2615193439        5.7940409904      -14.9125921920
 C         6.6138170380        6.5563574505      -13.1569756945
 C         2.0880262856        4.6617664159      -18.4674336870
 C         2.6552166616        6.9754700532      -19.2784755464
 C        -3.3173476705        7.8304262668      -14.6158804202
 C        -1.4179313783        7.6728896033      -12.9720193911
 H        -1.9235139288        4.9047125013      -16.6589288149
 H        -3.3680000774        5.3250983765      -15.7821093784
 H        -2.3182079087        3.9046124397      -15.4377162750
 H        -1.3133934538        9.2599038955      -17.1295303940
 H        -1.9697469307        7.6254833654      -17.1693144734
 H         0.7775798740        8.7673229087      -18.0194463828
 H        -0.4726842151        8.0909853994      -18.9701734907
 H         3.4254504499        8.4138631145      -16.3790831838
 H         4.4459081845        7.7182787732      -17.6430836350
 H         4.3283877687        7.1805163732      -14.4830149294
 H         5.5007393975        8.2242812820      -15.1754691395
 H         7.0004359893        2.1892602979      -14.7167375006
 H         7.5966269282        3.5020824406      -15.6531543015
 H         5.1131986899        3.4795930557      -16.8729050502
 H         4.7979177937        2.1670084758      -15.8932251716
 H         4.1820120822       -0.2038346131      -16.4467122086
 H         3.4569112231       -0.9619350508      -17.7897492188
 H         1.6505197430       -0.6519758156      -16.3736160789
 H         1.4429482293        0.6375061791      -17.4991413802
 H        -0.9506492279        1.0162526890      -12.6682545634
 H         0.3505588550        0.7280875681      -11.5392731231
 H         0.4800246205       -1.7847653401      -12.7467686394
 H        -0.6656095960       -1.1190053154      -13.8527410995
 H        -4.6582519680       -3.7760905118      -11.5086047508
 H        -4.1714942741       -2.4087822529      -12.1209413524
 H        -6.2625465317       -1.8277781719      -10.6393231370
 H        -4.7900314695       -1.2123818780       -9.9016113409
 H        -3.3436471123       -2.0771380821       -5.5668075337
 H        -2.5779128480       -3.2174335135       -6.6074993069
 H        -2.2521406496       -3.9068291132       -4.2586757913
 H        -3.3101139572       -5.2437233517       -5.1718543789
 H        -6.7844371144       -5.3971588247       -3.2886368372
 H        -6.7419011276       -6.1646258793       -1.7931272052
 H        -8.2313890289       -7.4169129551       -3.2008010976
 H        -6.9220568565       -8.6542390563       -3.1653014254
 H        -9.0823999691       -7.9527743650       -7.6033558531
 H        -8.6516522944       -9.4920684911       -7.8802365033
 H        -9.0272762734       -8.9747549472      -10.0640477866
 H        -7.3393769497       -8.7617702874       -9.9304132469
 H       -11.4931342424       -7.3836989165       -8.2582772320
 H       -12.0544902284       -5.8050934836       -8.5200237811
 H       -11.2183347908       -5.1914262982       -6.2098957566
 H       -10.4329358360       -6.6485479337       -5.9867592005
 H       -12.5897356494       -7.4453803599       -1.9751362080
 H       -11.7857359935       -6.0200562829       -2.4386002107
 H        -9.8047473760       -6.6390228550       -1.3800336173
 H       -10.2149191138       -8.3567650179       -1.4055891724
 H       -11.5268115217       -5.9737238325        3.9094080667
 H       -12.7502531400       -5.1689666284        2.9206446633
 H       -11.4876576904       -4.1607834801        3.7347554922
 H       -10.1818373430       -9.0308011037        1.8916404288
 H       -11.6838041846       -8.2669429702        2.5352497404
 H        -9.9784921465       -8.0433744998        3.2762760779
 H        -8.3420417383       -6.2256147463        2.1827664059
 H        -8.5474219475       -6.1724230373        0.4439138112
 H        -8.1455783871       -7.7035673953        1.1500796587
 H       -14.3498938145       -8.2512254320       -3.3081806260
 H       -14.8492995322       -7.1908508000       -4.7225385463
 H       -14.0377804132       -6.5411828929       -3.4621994320
 H       -12.1033097126       -9.1568488174       -6.3006680396
 H       -13.8434078064       -9.1783804422       -5.8700884189
 H       -12.7442417089       -9.9321314493       -4.7446953696
 H        -8.8335652737       -4.5963186159      -11.3963582421
 H        -9.3831250898       -3.8807190464       -9.8504552618
 H       -10.5281500163       -4.3897475048      -11.0622060577
 H       -10.7590841489       -6.9948447508      -11.6759375514
 H       -11.8402242827       -6.7202745434      -10.5831654188
 H       -10.9336672719       -7.9702991592      -10.3585129560
 H        -4.5737152284       -8.0591891614       -6.0929768323
 H        -4.8835685621       -9.7440784252       -6.2715971527
 H        -4.8719196204       -9.2245887178       -4.7297217232
 H        -6.8978297209      -10.5682715972       -4.7704811595
 H        -7.8349030038      -10.6656100940       -6.3232180095
 H        -8.3846708260       -9.7275064641       -4.9647330804
 H        -2.1061587950       -4.5479485755       -2.2996657545
 H        -2.3422128444       -6.1979311791       -2.9692447518
 H        -2.5504486361       -5.8571866347       -1.2033537805
 H        -4.1717112732       -3.7910115576       -0.5409278355
 H        -4.7881512320       -5.4550844960       -0.2984242891
 H        -5.7632276210       -4.2169237339       -1.0789640519
 H        -4.8830413200       -0.5237173622       -6.3783254202
 H        -5.3106466197       -0.2625313244       -8.1156967063
 H        -3.7398281004       -0.9570346612       -7.6333007158
 H        -6.7676308959       -1.7187537993       -5.7578563940
 H        -7.3121890275       -3.2899366056       -6.1537526334
 H        -7.7468112176       -2.0573214899       -7.1975226886
 H        -1.1346676738       -5.0687976074      -11.7691127541
 H        -0.8843130984       -3.8672390858      -13.0808422624
 H        -2.5461594849       -4.3143505813      -12.4841054862
 H        -0.5699186452       -3.8330298291       -9.3759647122
 H        -0.2205104418       -2.1621078422       -9.5635973540
 H         0.5341875280       -3.3798804673      -10.7017854437
 H         1.6764256467       -1.0639432564      -14.3848500979
 H         2.5344475592       -0.6729378814      -12.8750242198
 H         3.3411080143       -0.7497907956      -14.5264816180
 H         3.0932823420        1.5440323920      -12.3191935468
 H         2.5840562182        2.9611783040      -13.4117425307
 H         4.0423450083        2.0424610504      -13.6554499066
 H         5.2928477712        3.4513569640      -19.2055500690
 H         5.4015661758        2.2165860564      -20.4496535053
 H         6.8029939168        2.7144849253      -19.5688862330
 H         7.0944443999        0.2725188301      -19.6329836806
 H         5.5593459433       -0.3346625904      -19.9057632004
 H         6.4540957319       -0.7766929344      -18.3618941640
 H         8.9399787781        5.2313253901      -14.2117123020
 H         8.5565149495        6.8207325816      -15.0346253343
 H         8.3418908864        5.4759305381      -15.9373114422
 H         5.5459376539        6.3011220702      -12.7983772169
 H         6.8846614757        7.6494544303      -13.3562661871
 H         7.2252066872        6.3287138255      -12.2499361236
 H         2.1196267841        4.6335446191      -19.6158632786
 H         1.2055824013        4.2179660307      -18.1054936498
 H         2.8783946225        4.0041717592      -18.0881107996
 H         2.9463271898        8.0127748076      -19.1797096644
 H         1.9882238499        6.8445699256      -20.1446167409
 H         3.5031147227        6.5009243479      -19.6859286886
 H        -3.7249309903        8.4098795072      -13.7952414409
 H        -3.9461100263        7.0567069301      -14.8191027685
 H        -3.4374282215        8.3510880047      -15.5484667962
 H        -0.3856831116        7.4356202871      -13.0145111818
 H        -2.1545519127        7.0069108573      -12.4227721600
 H        -1.5165790829        8.7246590617      -12.6031370103
 Na        0.9773601551        4.2736513679      -15.4412163663
 Na       -6.8200771751       -5.5968604979       -7.7187758577
