232

 C        -2.4318255104        5.1568726795      -15.6338860807
 C        -1.5572424597        5.8779954657      -14.6969656452
 O        -0.5607561387        5.3531101139      -14.2082068450
 C        -1.8519549357        7.3102757897      -14.4457397845
 C        -0.7650740607        8.0359145935      -15.4375679334
 O         0.3129785899        8.3951198188      -15.0036540656
 C        -1.2989717503        8.0274424192      -16.9258117086
 C        -0.0871151469        7.8375919019      -17.9510761840
 C         0.6991830538        6.5226808202      -17.6544604317
 O        -0.0165481192        5.7050281199      -17.0461003874
 C         2.0867135782        6.1109010415      -18.1855473213
 C         3.0148581842        6.3077637947      -16.7877352265
 O         2.9087874857        5.5152955772      -15.9197944022
 C         4.0326748451        7.4603915313      -16.6759420447
 C         5.0245189904        7.4087875493      -15.5457527908
 C         5.9920520337        6.2262264537      -15.7091329112
 O         6.1745332888        5.6047114820      -16.7937902638
 C         6.8584673804        5.7152940714      -14.4494482159
 C         6.3285082197        4.2211893242      -14.1925833067
 O         5.6894161739        4.0272808125      -13.1938542270
 C         6.6960899046        3.0422639242      -15.0597504142
 C         5.7035612383        2.7740049490      -16.1194974028
 C         6.3588455604        1.7350801232      -17.2001782098
 O         7.4607504337        1.3244489275      -17.0915158876
 C         5.5204045365        1.3461174149      -18.5406745622
 C         4.0195713747        1.1369366713      -18.3372905575
 O         3.1619660659        1.8507356968      -18.8179219620
 C         3.6813690717        0.1008575298      -17.2664900717
 C         2.1834216576        0.3506030778      -16.7619580140
 C         2.2428592683        1.4502792996      -15.6929004819
 O         2.3976114078        2.6184414799      -16.0870711080
 C         2.0889061706        1.1092729653      -14.1786277517
 C         0.4928469606        1.2128485215      -13.8344877825
 O        -0.1402953389        2.1713161863      -14.2769052136
 C        -0.1447810530        0.4301040994      -12.6592836029
 C        -0.3473924007       -1.0379439252      -12.8959377015
 C        -1.4992103127       -1.6090891459      -11.9819588742
 O        -2.4160801621       -0.8303323397      -11.6691982155
 C        -1.4653245560       -2.8934217835      -11.2593819991
 C        -2.8489585679       -2.9143149326      -10.3263825102
 O        -2.8392896524       -3.0685505894       -9.1405623036
 C        -4.2219540329       -2.8624381833      -11.0122911428
 C        -5.2685434117       -2.1177775876      -10.2545371921
 C        -5.6745800809       -2.9092831288       -8.9521976877
 O        -5.9486295466       -4.1019928083       -9.0546857585
 C        -5.6267835757       -2.3738509805       -7.4232121886
 C        -4.8176293202       -3.5087578544       -6.6288407618
 O        -5.1771472365       -4.6725637214       -6.6066375205
 C        -3.4780701191       -3.1050321111       -5.8664761509
 C        -3.0927309536       -4.1039845767       -4.8104052495
 C        -4.1810335907       -4.0572923222       -3.6373657060
 O        -5.1551185222       -3.3579692060       -3.7692302163
 C        -4.1074917872       -5.0746274607       -2.4679915180
 C        -5.0134912857       -6.3409897308       -3.0545100658
 O        -4.3460566665       -7.2519897256       -3.4306237801
 C        -6.5903935220       -6.3178649089       -2.7919583266
 C        -7.3292359868       -7.4817165068       -3.4754975597
 C        -7.1701880142       -7.3853249457       -5.0135362819
 O        -7.5866011417       -6.4245306171       -5.5997429178
 C        -6.6510900821       -8.6742728658       -5.7995075191
 C        -6.8371822407       -8.3409373654       -7.3808991138
 O        -5.9676557540       -7.7841639172       -8.0442235583
 C        -8.1727495643       -8.7258542669       -7.9315390089
 C        -8.2691414463       -8.3741035675       -9.4449810762
 C        -8.2625211210       -6.8929304164       -9.8767880371
 O        -7.2511495007       -6.2865872332      -10.3002562154
 C        -9.6192005354       -6.1680374426       -9.9368431875
 C        -9.9438587413       -5.7845854129       -8.4823446507
 O        -9.1382332685       -5.1602057964       -7.7723488536
 C       -11.2985309054       -6.2720417134       -7.9561375484
 C       -11.3800517492       -6.1102030648       -6.4576418858
 C       -12.7755891793       -6.5860622669       -5.9572104564
 O       -13.8423967080       -6.2416081414       -6.3787323141
 C       -12.7305044924       -7.6967446207       -4.7627073207
 C       -11.4433226924       -7.6202354233       -3.8061122956
 O       -10.3588970693       -7.9113958251       -4.1944527467
 C       -11.6889202361       -6.9341526174       -2.3958288617
 C       -10.5771484183       -7.1172340269       -1.3295551712
 C       -11.1177639347       -6.9905605441        0.1438253318
 O       -12.3084739602       -6.9965410943        0.2639121251
 C       -10.3029799116       -6.8495795572        1.4717774869
 C       -10.7458309361       -5.4504110480        1.8402547390
 O       -10.2490652455       -4.5529109491        1.1701573510
 C       -11.6461732257       -5.1633786891        2.9645059957
 C       -10.8341292139       -7.9518042404        2.4549304087
 C        -8.7211404513       -6.8626415458        1.4116826905
 C       -13.9956509235       -7.4683955715       -3.9250075458
 C       -12.9181030696       -9.0614744572       -5.5153093034
 C        -9.5564691110       -4.8020217041      -10.6424586688
 C       -10.7047476154       -6.9183769886      -10.6342863402
 C        -5.1079505942       -9.0842136157       -5.6548240967
 C        -7.5403128460       -9.8572460335       -5.3274733348
 C        -2.7161747766       -5.6229032639       -2.1926137597
 C        -4.6553434118       -4.5739564344       -1.1294604966
 C        -4.9681516493       -0.9940448953       -7.2990198506
 C        -6.9235010184       -2.2500722018       -6.7350478317
 C        -1.2851626540       -4.0693968541      -12.2559181528
 C        -0.3410512431       -3.0085170463      -10.1735240266
 C         2.5721313871       -0.3972909179      -14.0859888528
 C         2.9968673384        1.9527044886      -13.2449199695
 C         5.7543160194        2.5136096713      -19.5728037166
 C         6.2243407298        0.0484770723      -19.1144638439
 C         8.4217300732        5.5513726057      -14.8082366081
 C         6.5721489162        6.5642437196      -13.1955006681
 C         2.0242549539        4.6244599572      -18.5217383822
 C         2.6713020264        6.9193621433      -19.3772280780
 C        -3.2980737472        7.8363089477      -14.7385782204
 C        -1.5180716191        7.6178258497      -12.8864427080
 H        -1.9057720824        5.1098577648      -16.5786541470
 H        -3.4353083597        5.5327141497      -15.7740131925
 H        -2.3909141878        4.0998868417      -15.4304694960
 H        -1.7073266015        9.0490022933      -17.1104867379
 H        -2.0853175306        7.2710962091      -16.9160002967
 H         0.4568620283        8.7208211228      -17.9752605713
 H        -0.5650005321        7.7525392609      -18.9284979293
 H         3.4538319718        8.4009655313      -16.4589760356
 H         4.4384748664        7.5409064401      -17.6832544542
 H         4.4499529229        7.1609294007      -14.6574986270
 H         5.4272315025        8.3969161011      -15.3240915801
 H         6.7980367414        2.1147881434      -14.5073517745
 H         7.7320642803        3.2378297534      -15.5015816607
 H         5.4248953050        3.6005996364      -16.8331707483
 H         4.7303241614        2.4399899189      -15.8499220483
 H         4.3231765476        0.1205875618      -16.4125361515
 H         3.8175599885       -0.8902723056      -17.7035175932
 H         1.6076254818       -0.5593687389      -16.5407991055
 H         1.5679897358        0.8051639410      -17.6927723370
 H        -0.9225648856        1.0861498004      -12.2743407343
 H         0.6234851099        0.4875385600      -11.8097778643
 H         0.5047468714       -1.6844906702      -12.6543276633
 H        -0.5240261104       -1.1227011385      -14.0240711478
 H        -4.6841878282       -3.8174446199      -11.3047686364
 H        -4.1383086001       -2.5411994598      -12.0664213114
 H        -6.2781983211       -2.1934642303      -10.8238217630
 H        -5.0978070245       -0.9353312364      -10.2823699099
 H        -3.5755832422       -2.0966062619       -5.5558311216
 H        -2.7441034767       -2.9775258385       -6.7291172882
 H        -2.0913142819       -3.7645281440       -4.3331770560
 H        -3.0783732618       -5.1098567658       -5.2792237631
 H        -6.8386110659       -5.2344763423       -3.0436764645
 H        -6.5487801115       -6.2855015936       -1.7241671867
 H        -8.3862828914       -7.4042647041       -3.3031881056
 H        -7.0228442708       -8.3626001651       -3.0853603586
 H        -8.9336903786       -8.2199066104       -7.4151763027
 H        -8.4508344578       -9.7557149608       -7.8037542877
 H        -9.1264505818       -8.8292693952       -9.8385823109
 H        -7.4643309795       -8.8666389842       -9.9480371079
 H       -11.6033062168       -7.2748928423       -8.2907480234
 H       -11.9881213471       -5.6362870721       -8.5102979587
 H       -11.2159932432       -5.0742060337       -6.2397994829
 H       -10.5082816111       -6.5555050393       -5.9798572858
 H       -12.5723816140       -7.3507116401       -1.9100636509
 H       -12.0340568293       -5.8515981929       -2.7153024985
 H        -9.6491042317       -6.6143131825       -1.4666329301
 H       -10.3832476954       -8.1586664861       -1.4555231198
 H       -11.6333269101       -5.9991322082        3.7330062989
 H       -12.7256982726       -5.1087598451        2.5848470797
 H       -11.4502744168       -4.2221607799        3.4273088606
 H       -10.5572612181       -8.9513110762        2.3674689649
 H       -11.9073854962       -7.9097551729        2.4381718495
 H       -10.4752291837       -7.5875664331        3.3819674297
 H        -8.3275069260       -6.7710535420        2.3965185189
 H        -8.4167550807       -5.9813278610        0.8172243337
 H        -8.2034590879       -7.6983504821        0.8855269362
 H       -14.2691494830       -8.1779509639       -3.2613000713
 H       -14.7468062944       -7.1438527682       -4.6678601574
 H       -13.9434080210       -6.5605756828       -3.3857324328
 H       -12.0506075810       -9.2896322641       -6.1979779341
 H       -13.8249202223       -9.0553419900       -6.0801161995
 H       -13.0364990784       -9.7019022429       -4.6407500823
 H        -9.2194634496       -4.9224144726      -11.6390188775
 H        -8.9375998269       -4.0976619487      -10.1685319607
 H       -10.5698932876       -4.3582039825      -10.7321222844
 H       -10.5532299855       -7.2855201296      -11.5919088738
 H       -11.5748411013       -6.3909274518      -10.7961805180
 H       -11.1375036523       -7.7650897709      -10.1193714145
 H        -4.4584746312       -8.4206582149       -6.1430668796
 H        -4.9095493620      -10.0203359844       -6.2180361408
 H        -4.8555234684       -9.3024844536       -4.6405090433
 H        -7.0497599377      -10.4348595520       -4.4310166398
 H        -7.7473657612      -10.5688663699       -6.0787804956
 H        -8.4952826347       -9.4557697709       -4.9917639036
 H        -2.0171851233       -4.8657487768       -2.5510670671
 H        -2.5917788495       -6.5517524361       -2.7020286613
 H        -2.5860145594       -5.6995469935       -1.1236473552
 H        -4.1054097769       -3.8089450619       -0.5561561252
 H        -4.5797562287       -5.4468187230       -0.5292397570
 H        -5.7367589965       -4.2750468386       -1.0427088903
 H        -4.9390201826       -0.6701118604       -6.2818538380
 H        -5.4839771447       -0.2597622674       -7.9103138539
 H        -3.9356239986       -1.0319154888       -7.6430412544
 H        -6.7604118897       -1.6872542219       -5.8414391167
 H        -7.2879952737       -3.2126376985       -6.4706011259
 H        -7.7043840081       -1.8948208668       -7.3720977823
 H        -1.1070885467       -4.9855768219      -11.7262759331
 H        -0.3851821176       -3.8120653853      -12.7908280679
 H        -2.0726458142       -4.1969846468      -12.9074895296
 H        -0.4955517334       -3.7298502649       -9.3649500776
 H        -0.2893218679       -2.1027998915       -9.5725613120
 H         0.5880107915       -3.2253762560      -10.7315234507
 H         1.8015053165       -0.9531741441      -14.5325393228
 H         2.7138021961       -0.7068610500      -12.9924700658
 H         3.5012138902       -0.5204477252      -14.7258713631
 H         2.9884688148        1.5659157761      -12.2260771687
 H         2.8582986437        3.0443412051      -13.3246985350
 H         4.0286933102        1.7100265032      -13.4734422406
 H         5.1321567453        3.4219003880      -19.5465635158
 H         5.4875880806        2.0590148951      -20.5343350271
 H         6.7871717473        2.9094416716      -19.6092756122
 H         6.9445656103        0.3947825093      -19.8082997973
 H         5.5623615556       -0.5386278547      -19.7635195781
 H         6.7412219057       -0.5822342858      -18.3957453339
 H         8.9123857567        4.8702748172      -14.2206939255
 H         8.9128935855        6.5114536830      -14.7530624131
 H         8.4958911691        5.3439429667      -15.9020852035
 H         5.5515489721        6.6994071351      -13.0508769021
 H         7.2823288052        7.4737120238      -13.1846034636
 H         6.8058673636        6.0444852319      -12.1873861042
 H         2.1529287035        4.5491938749      -19.5890607512
 H         0.9931359594        4.1797623979      -18.1381815854
 H         2.7437873723        3.9405441978      -18.0409496993
 H         2.6784133459        7.9888955256      -19.1205604060
 H         2.3168849508        6.6622247244      -20.3589222820
 H         3.7345773851        6.7270386947      -19.5536298486
 H        -3.7413075075        8.5408715885      -14.0757916050
 H        -3.9195702090        6.9309920261      -14.6560487503
 H        -3.4811338096        8.0192817656      -15.7720693750
 H        -0.4386934735        7.4901508027      -12.7828192900
 H        -2.2711122578        7.1062570369      -12.3392477361
 H        -1.7039279296        8.7188274439      -12.7332107629
 Na        0.9640884813        4.1261255373      -15.2725333597
 Na       -6.9033544841       -5.6171853539       -7.7217197913
