232

 C        -2.9806974406        5.0246737619      -15.0098645642
 C        -1.8337248619        5.7978649964      -14.3082448729
 O        -0.9322981105        5.2318701730      -13.7425108552
 C        -1.9588494764        7.4193890262      -14.2999713513
 C        -0.9147325215        8.0094053877      -15.3652128226
 O         0.1036955908        8.5294201109      -15.1051026617
 C        -1.2851394764        8.0127790432      -16.9490928797
 C        -0.0725594577        7.8588765814      -17.7428317308
 C         0.5149407305        6.5529513126      -17.5927182345
 O         0.0053362092        5.6482429827      -16.9285229962
 C         1.9972403745        6.1428688229      -18.0457188874
 C         2.9956078210        6.2755478710      -16.8577040544
 O         2.8821740301        5.5956647756      -15.8213992784
 C         4.1439116573        7.2862031119      -16.9407489435
 C         5.1047111996        7.2113056390      -15.7410991927
 C         6.2679955298        6.1660179428      -15.9434796194
 O         6.5130159273        5.8691091253      -17.0754604619
 C         6.9357769600        5.4669990632      -14.6866956718
 C         6.1198713226        4.0966572226      -14.3424751438
 O         5.1119525465        4.2162709561      -13.6898405408
 C         6.5170430528        2.7913839911      -15.0234380751
 C         5.9403162967        2.7818985561      -16.3983499296
 C         6.4871314734        1.5841895311      -17.3020803281
 O         7.4479038066        0.9090251526      -17.0731245539
 C         5.6366190056        1.3739858559      -18.6596294694
 C         4.2197308314        1.1163114575      -18.2390026962
 O         3.3517640226        1.8633091514      -18.6442170992
 C         3.8824446132       -0.0816838961      -17.3791477455
 C         2.5907981848        0.0336941236      -16.5339541428
 C         2.2874078241        1.2060926810      -15.6057713016
 O         2.1383711446        2.3006457685      -16.0598858781
 C         2.1373758981        0.8907051522      -14.0553280640
 C         0.5765310505        1.2022467538      -13.7009668748
 O        -0.0936456582        1.9120218463      -14.3879115834
 C        -0.0623339060        0.3533757443      -12.6094892013
 C        -0.6981730220       -0.9474051422      -13.0527798323
 C        -1.7123152801       -1.4667290000      -11.8180055993
 O        -2.6027439115       -0.8002502072      -11.4212139416
 C        -1.4281558820       -2.9227271709      -11.1680867565
 C        -2.7657478425       -3.2920157166      -10.3322481065
 O        -2.8262419000       -3.8227087843       -9.2209773376
 C        -4.0757303776       -3.1394693710      -11.0697066542
 C        -5.0617313939       -2.0437358315      -10.3176451106
 C        -5.6334037371       -2.7804475706       -9.1535621647
 O        -6.0748640900       -3.9001116720       -9.3987349167
 C        -5.6689665770       -2.2968824586       -7.6678066338
 C        -4.8181393095       -3.4036715877       -6.8013267426
 O        -5.2216689571       -4.5298474027       -6.7368651041
 C        -3.5097971574       -3.1005411622       -6.0779996655
 C        -3.2033454625       -3.9703901660       -4.8735747080
 C        -4.2159538425       -4.1003451116       -3.7759041018
 O        -5.2483419530       -3.4385011346       -3.7834478099
 C        -3.9248892880       -5.0910516232       -2.5619132077
 C        -4.7493352630       -6.3670564196       -2.8422345762
 O        -4.3308413713       -7.5209313911       -2.9551564818
 C        -6.2847244288       -6.0655603498       -2.8694232130
 C        -7.0217484531       -7.3359367546       -3.4215798171
 C        -7.0081858879       -7.4086915150       -5.0011787639
 O        -7.0375110007       -6.3579816082       -5.6289767983
 C        -6.8322708192       -8.8414312872       -5.7772111023
 C        -7.0842917889       -8.5794934930       -7.2914725516
 O        -6.2464625381       -7.9259829689       -7.8733470763
 C        -8.3358873736       -9.0797363267       -8.0443585657
 C        -8.4434656654       -8.6711345447       -9.5630297162
 C        -8.3541973058       -7.1287824213       -9.8699125844
 O        -7.3115952354       -6.5863128858       -9.8902865706
 C        -9.6435245393       -6.2180372048       -9.9312727668
 C       -10.0120032981       -5.7685715036       -8.4407266450
 O        -9.1587667938       -5.2815658079       -7.7619402406
 C       -11.4377135286       -6.1244979102       -7.9853022335
 C       -11.3943481055       -5.8765145653       -6.4752594431
 C       -12.7151170371       -6.2924508717       -5.7585673420
 O       -13.8213927214       -5.7913568280       -5.8893612545
 C       -12.6706124867       -7.3773698314       -4.6421217342
 C       -11.4954346004       -6.9718424421       -3.5883036169
 O       -10.3173419446       -7.3560580292       -3.7958635521
 C       -11.7084348400       -6.0455677982       -2.3353624487
 C       -10.7639470651       -6.4547186367       -1.2162422409
 C       -11.4576012307       -7.1363479159        0.0290372743
 O       -12.5199012072       -7.7451482628       -0.0092875012
 C       -10.5319777001       -6.8635875977        1.3745295269
 C       -10.4382583803       -5.2985111741        1.4652606478
 O        -9.3522360584       -4.8067833991        1.2940684247
 C       -11.6813892438       -4.4429294156        1.9629494194
 C       -11.1738196758       -7.4627928536        2.6322938170
 C        -9.1174633969       -7.3099138128        1.2818047870
 C       -13.9815651915       -7.5084580285       -3.8871087615
 C       -12.3556779165       -8.7859522901       -5.3442964798
 C        -9.3119733286       -4.9567776012      -10.7844978504
 C       -10.7860937891       -7.0585355349      -10.5584484461
 C        -5.3807414328       -9.2874841512       -5.3582580216
 C        -7.8877836706       -9.8421247046       -5.2723996163
 C        -2.4157538253       -5.4287988547       -2.5369233552
 C        -4.2765869649       -4.4423759043       -1.2105039053
 C        -5.0734650261       -0.8912158884       -7.4956094378
 C        -7.1165103927       -2.4521864036       -7.0286298564
 C        -1.0203753659       -3.9749734948      -12.1975832165
 C        -0.3282022311       -2.7416222870      -10.2014821703
 C         2.7174528602       -0.4712605353      -13.5733454792
 C         2.9307576672        1.9987065984      -13.3032517838
 C         5.9731841137        2.6420152483      -19.5633742903
 C         6.2922790219        0.1581798656      -19.4262797795
 C         8.4855526909        5.3139619388      -14.8243632053
 C         6.7522136155        6.3981458483      -13.3965730542
 C         2.0516787666        4.6789203569      -18.4533499758
 C         2.5567352934        7.0853412985      -19.2047791382
 C        -3.4058349673        7.8363590976      -14.7694182171
 C        -1.6561031174        7.9899701219      -12.9161816265
 H        -3.3311064890        5.4041249648      -15.9519452741
 H        -3.7544088091        4.7592534094      -14.3180563610
 H        -2.6326444135        4.0192455136      -15.2041225055
 H        -1.8293428757        8.9401212904      -17.1297039216
 H        -1.9898028368        7.1490275294      -17.0505220776
 H         0.6794454281        8.5478910844      -17.4156596500
 H        -0.3218233325        8.0502336370      -18.7436584788
 H         3.7007299404        8.2617609450      -17.2254050152
 H         4.6986587961        6.7962185301      -17.7629292670
 H         4.5693420276        7.1131812103      -14.8020283344
 H         5.6208866692        8.1530409304      -15.7780329474
 H         5.9758180099        1.9850812135      -14.4411731955
 H         7.5878499078        2.6578968315      -14.9429844190
 H         6.2679555027        3.6867526530      -16.8912602040
 H         4.8029004870        2.7508415232      -16.4851967632
 H         4.6961132292       -0.3426337187      -16.7068796208
 H         3.7157672181       -0.9300537347      -18.0293105613
 H         2.6339519365       -0.9025044079      -15.8364900709
 H         1.6734651989       -0.1584096878      -17.1218399227
 H        -0.8507966385        0.9922494978      -12.0972749696
 H         0.4606808658        0.2158843862      -11.7290920862
 H         0.0185208370       -1.8336885379      -13.2117994446
 H        -1.4317246545       -0.8464286366      -13.8271889370
 H        -4.6459696197       -4.1300629770      -11.1095121723
 H        -3.9484580246       -2.8807018338      -12.1412275485
 H        -5.8852456429       -1.7143044482      -11.0768609058
 H        -4.6700831953       -1.0604420383      -10.0553606814
 H        -3.5172187115       -1.9454234444       -5.9624009772
 H        -2.6470789661       -3.1409239756       -6.7420755739
 H        -2.2397911229       -3.5827376293       -4.5338766808
 H        -3.0406492235       -5.0276643753       -5.2070137839
 H        -6.5794461451       -5.1538693693       -3.4356992235
 H        -6.6084830326       -5.7876545630       -1.8019056887
 H        -7.9594981296       -7.3044439308       -3.0879259742
 H        -6.6085109890       -8.2900063846       -3.0481785194
 H        -9.2498870568       -8.8847553914       -7.5841255143
 H        -8.3011401538      -10.1753082201       -8.1187564924
 H        -9.3328619501       -9.0547584269      -10.0265238340
 H        -7.6219544189       -9.1273293941       -9.9864497902
 H       -11.7912963109       -7.1359385996       -8.2120290010
 H       -12.2081983968       -5.4477190828       -8.3194910306
 H       -11.1595101662       -4.8299605353       -6.2413292650
 H       -10.6268410392       -6.4643116372       -6.0398921373
 H       -12.8065961505       -5.9857706766       -2.0666436025
 H       -11.6144700188       -4.9736719881       -2.6950471150
 H       -10.2081274009       -5.6230530090       -0.8691479772
 H       -10.0042802957       -7.0560452687       -1.6565454113
 H       -11.6334407893       -4.0620142509        2.9980080043
 H       -12.6281425989       -4.9834134177        1.9633303424
 H       -11.7184262009       -3.5861663401        1.2209498386
 H       -11.2349762544       -8.5231266279        2.6213293474
 H       -12.1202308325       -7.0381444138        2.8285664540
 H       -10.5355918890       -7.1357621308        3.4295413101
 H        -8.4556548553       -6.9270244779        2.0396885200
 H        -8.6910766603       -7.3001472131        0.2952000161
 H        -9.1303625228       -8.3893414437        1.5025762249
 H       -14.0809557556       -8.2403191137       -3.0462912043
 H       -14.7132118603       -7.6971325151       -4.5981639876
 H       -14.1617121258       -6.5480520199       -3.4748729457
 H       -11.6737468416       -8.5371318085       -6.1312308021
 H       -13.2477781468       -9.2622155771       -5.8130457012
 H       -11.8737344748       -9.4238877253       -4.6094344859
 H       -10.1997613552       -4.6949164533      -11.3783706170
 H        -8.5232952333       -5.1594484359      -11.5036198051
 H        -9.1029466622       -4.1390401022      -10.1392268604
 H       -10.7063577287       -7.4457526548      -11.5699552642
 H       -11.7052373605       -6.4628491339      -10.5508798380
 H       -10.9777028566       -7.9363174516      -10.0644729977
 H        -4.6277958812       -8.5334075438       -5.6022990021
 H        -5.0208150577      -10.1462784749       -5.8262897992
 H        -5.3745925182       -9.2813547320       -4.3013567094
 H        -7.5681545592      -10.3005241592       -4.4157190031
 H        -7.9560135877      -10.6511398160       -6.0401700276
 H        -8.8873439310       -9.3432368859       -5.1167009867
 H        -1.9723542883       -4.6459880959       -1.9769879322
 H        -2.0406819160       -5.3450963847       -3.5726445758
 H        -2.1625246010       -6.4203203510       -2.1866123228
 H        -3.6747822953       -3.5631675002       -1.0221563842
 H        -4.1259889324       -5.0367063761       -0.2541961319
 H        -5.3126193859       -4.1116293931       -1.2029216645
 H        -5.0875660267       -0.6826361521       -6.4012305725
 H        -5.7441744886       -0.1241035025       -7.8537457605
 H        -4.0491944965       -0.7156193802       -7.8420904152
 H        -7.0415527744       -2.2811839211       -5.9774831504
 H        -7.4787462479       -3.4473411609       -7.2163916654
 H        -7.8167562536       -1.7002935193       -7.3191432453
 H        -0.5974805490       -4.7749959471      -11.6406150789
 H        -0.2853386592       -3.6680497129      -12.8792590574
 H        -1.8644112413       -4.3496871436      -12.8004129973
 H        -0.1221175960       -3.6686662242       -9.6685028774
 H        -0.5821395459       -2.0028789906       -9.4040332745
 H         0.5812215184       -2.4160678685      -10.7627236605
 H         1.9787729609       -1.3236680720      -13.8689461977
 H         2.8251693107       -0.4713201026      -12.5195028211
 H         3.7431376982       -0.5263299071      -13.9479939954
 H         2.9088869893        1.8648819213      -12.2299576822
 H         2.3410282834        2.9049633503      -13.5325156979
 H         3.9799746615        2.1384701213      -13.7026619357
 H         5.9547140407        3.5415447572      -18.9748557993
 H         5.3242594818        2.8220515437      -20.4619395491
 H         6.9985620225        2.5407595074      -19.9787434296
 H         7.3661312158        0.1582633904      -19.1206711016
 H         6.2499111151        0.2465642369      -20.4825438289
 H         5.8278868530       -0.7751811764      -19.1439891087
 H         9.0014643717        4.9738857454      -13.9162807920
 H         8.8334852651        6.3267013118      -14.9363003181
 H         8.7587000400        4.6976696548      -15.6022282656
 H         5.7736358110        6.1019953626      -12.7750088773
 H         6.7560482358        7.4807662421      -13.5741003613
 H         7.5042379445        6.1378925783      -12.6820558938
 H         1.0569913310        4.2168192140      -18.7670714317
 H         2.5554242530        4.1204710962      -17.7294874921
 H         2.7326438284        4.5555833398      -19.3785031545
 H         2.4872640207        8.1632572568      -19.1116188922
 H         1.9409495208        6.7816120936      -20.0914729104
 H         3.6318363315        6.8966921578      -19.4317020040
 H        -3.5734604457        8.5292760814      -15.5585079545
 H        -3.8648456075        8.2252922293      -13.8658236872
 H        -3.9230355484        6.9588373106      -15.0892341044
 H        -0.6358144099        7.5673107525      -12.7460333488
 H        -2.4309061674        7.6474983942      -12.1555763529
 H        -1.6890796533        9.0862262905      -12.9996197357
 Na        0.9520970434        4.2297202335      -15.1511606849
 Na       -6.7767966133       -5.5102828792       -7.8760097151
