232

 C        -2.9238343784        4.9726207140      -14.8774820879
 C        -1.8544646124        5.8356882388      -14.2855533045
 O        -0.8449378074        5.3044553964      -13.7950590129
 C        -1.9917143967        7.3720767598      -14.2423587822
 C        -0.9378768327        7.9981650345      -15.3962351349
 O         0.0738860519        8.4863993830      -15.0079644431
 C        -1.3673134059        7.9308334606      -16.8984881673
 C        -0.1577486851        7.8730030218      -17.8477576783
 C         0.5315448763        6.5305875661      -17.5978619884
 O        -0.0392590751        5.6682417700      -17.0158477229
 C         2.0782570422        6.1134371283      -18.0879603484
 C         2.9326684467        6.2951530280      -16.7260014153
 O         2.6951078771        5.5632471369      -15.7947827522
 C         4.1655338642        7.2492579845      -16.8692767641
 C         5.1564904955        7.2486097723      -15.6745465647
 C         6.3067297597        6.2226935865      -15.9547592506
 O         6.5942729883        5.8728834528      -17.0689595593
 C         6.9626572622        5.5109656391      -14.7181336037
 C         6.1313797526        4.1736639438      -14.4574141082
 O         5.1039660504        4.2475470600      -13.8303037657
 C         6.5600487223        2.7969287008      -15.0741056245
 C         5.9999830220        2.6745321058      -16.4696342158
 C         6.5503448629        1.5744349678      -17.3032515725
 O         7.3587962996        0.7649055182      -16.9574339653
 C         5.7854187678        1.3791257809      -18.6730334720
 C         4.2604721480        1.1298203589      -18.2641952741
 O         3.3428863956        1.8255479236      -18.6353476083
 C         4.0375198299       -0.1140998261      -17.3416248149
 C         2.6807919129       -0.0949451099      -16.5248941693
 C         2.3987098165        1.1674871261      -15.5396818339
 O         2.0800257997        2.2436344089      -16.0461159999
 C         2.2111178759        1.0139500359      -14.0416070795
 C         0.6679653122        1.1256516215      -13.8013590955
 O         0.0809197806        2.0073466589      -14.3946792962
 C        -0.1410285664        0.4302576064      -12.5577058352
 C        -0.8170565933       -0.9229040567      -12.9258680445
 C        -1.7309793100       -1.5141363248      -11.8576649729
 O        -2.5777126256       -0.8230591590      -11.2813160265
 C        -1.3724142945       -2.9115061423      -11.1840510889
 C        -2.7871537169       -3.3428437818      -10.4329486645
 O        -2.6850165892       -3.7973102265       -9.3373688508
 C        -4.1389595177       -3.0504757048      -11.1666960185
 C        -5.0013707626       -2.1116217959      -10.3144281552
 C        -5.7266043753       -2.8438013566       -9.1050931021
 O        -6.2477467948       -3.8948237621       -9.3413003950
 C        -5.7056734133       -2.2584472192       -7.5599205423
 C        -4.7664309460       -3.2952337985       -6.8255502494
 O        -5.0773948030       -4.5035034527       -6.9129736582
 C        -3.4363073396       -2.9551051182       -6.1647177731
 C        -3.2313898374       -3.8792848875       -4.9638417623
 C        -4.2503105557       -4.0224608908       -3.7795891328
 O        -5.2669303642       -3.4132025952       -3.6298492120
 C        -3.8500971796       -5.0382601619       -2.7108210871
 C        -4.7228107851       -6.3655677905       -2.8264141009
 O        -4.2939960252       -7.5081737444       -2.8640217465
 C        -6.2691143463       -6.2124492776       -2.8788042003
 C        -6.9631512857       -7.3661247197       -3.4809483658
 C        -6.9579983688       -7.4061130279       -4.9971177052
 O        -7.1528817038       -6.3603043892       -5.5849098731
 C        -6.9351869949       -8.8404759903       -5.6478070408
 C        -7.1410432784       -8.6675157684       -7.2656321009
 O        -6.3917388014       -7.9468108084       -7.8689401528
 C        -8.4245099087       -9.1449478170       -8.0322797945
 C        -8.4821033271       -8.6841436744       -9.5186971765
 C        -8.3955335274       -7.1120030504       -9.7426814921
 O        -7.3373517464       -6.5746137847       -9.9499716986
 C        -9.7388925820       -6.2928065345       -9.9650232799
 C       -10.0499888700       -5.9546425738       -8.4742267181
 O        -9.1676133297       -5.5306575799       -7.7015322835
 C       -11.3780569042       -6.1470542277       -7.8528518533
 C       -11.3548866619       -5.8874916556       -6.3041924193
 C       -12.6478967476       -6.1677926407       -5.6018704339
 O       -13.6355997545       -5.6472129654       -5.9973812916
 C       -12.6815600344       -7.2961524549       -4.4853993226
 C       -11.5837569021       -6.9288841115       -3.5120584943
 O       -10.4041834936       -7.2551043566       -3.7669925745
 C       -11.8328914419       -6.0221220856       -2.3864285061
 C       -10.8675026094       -6.3305306092       -1.2222481295
 C       -11.4197223441       -7.0354363919        0.0159874942
 O       -12.3847911661       -7.7291139484       -0.0494678502
 C       -10.5923053013       -6.8303397337        1.3845628345
 C       -10.3705736987       -5.2765682988        1.4492149943
 O        -9.2509483873       -4.7983188588        1.3146839217
 C       -11.5770854112       -4.3614385635        1.7017871056
 C       -11.3045167435       -7.3987865672        2.6607489489
 C        -9.2315539675       -7.5558634245        1.2331738643
 C       -14.0600935658       -7.5496560093       -3.9474021486
 C       -12.1064326452       -8.5961976439       -5.2880229515
 C        -9.3577055099       -5.0500311403      -10.8821632871
 C       -10.8263390088       -7.0995923412      -10.6718366729
 C        -5.4649604658       -9.4096845643       -5.5035977334
 C        -7.9923827330       -9.8301480462       -5.0243740262
 C        -2.2864662134       -5.4338949053       -2.5880395076
 C        -4.3066143059       -4.3792388711       -1.4019810052
 C        -5.0722549531       -0.8151452126       -7.5016468160
 C        -7.0708336468       -2.3406600030       -6.9723621413
 C        -0.9080053686       -3.9916671891      -12.2497536399
 C        -0.2091301668       -2.7294687807      -10.1497882394
 C         2.6294685705       -0.4270773306      -13.6096043650
 C         3.0278565365        2.1034609613      -13.3124111578
 C         5.8210827696        2.5842783901      -19.5863418904
 C         6.3838034899        0.1079112475      -19.4340404342
 C         8.4610266779        5.1082124360      -14.7776684193
 C         6.8247030099        6.3837956534      -13.3639115940
 C         1.9764591008        4.6552446608      -18.4635492524
 C         2.4719557813        7.0868264543      -19.2525500096
 C        -3.4574303452        7.8950240553      -14.6472985173
 C        -1.7223199033        8.0455646488      -12.8353524691
 H        -3.2701828318        5.3395311671      -15.8354165347
 H        -3.7212833193        4.7755158553      -14.1525607407
 H        -2.6056015917        3.9106130242      -14.9428247536
 H        -2.0362598408        8.8158734551      -17.0597371977
 H        -2.0257266759        7.0485581048      -16.8869414233
 H         0.5088365563        8.7651675613      -17.7132529922
 H        -0.5989259302        7.8832241438      -18.8326217269
 H         3.5637129899        8.1699131009      -16.8586735150
 H         4.5747896052        7.0075380570      -17.8727660016
 H         4.5578351232        6.9383404509      -14.8232400722
 H         5.4882403658        8.2649772275      -15.5604344064
 H         6.0311351486        2.0473864922      -14.4248322184
 H         7.6274644376        2.6949328166      -14.9104861732
 H         6.3762800531        3.5345042773      -17.0088216187
 H         4.8842563953        2.6445359679      -16.5619843682
 H         4.9005107155       -0.2718480066      -16.6473202773
 H         3.9836035733       -0.9946494995      -17.9984899454
 H         2.5001525062       -1.0943342076      -16.0587878217
 H         1.8956356056        0.0321834348      -17.2090501161
 H        -0.6789442942        1.1130178806      -11.9608961038
 H         0.6607049911        0.2244958289      -11.8014901480
 H        -0.0074229256       -1.6882139214      -13.0720999230
 H        -1.5232577612       -0.8443278459      -13.7935262850
 H        -4.7401343616       -3.9709350194      -11.3283925644
 H        -3.9769805990       -2.5961945559      -12.2075548966
 H        -5.7936114740       -1.8431243377      -10.9392089365
 H        -4.6129341987       -1.1760480401      -10.1192788646
 H        -3.4547782361       -1.8584036634       -5.9054913947
 H        -2.5439318523       -2.9305534291       -6.8226843431
 H        -2.3915647224       -3.4590933932       -4.5373625323
 H        -2.8779622381       -4.8907333128       -5.2067555925
 H        -6.5651994098       -5.3203626332       -3.4605217076
 H        -6.8170529097       -5.9953562672       -1.8719064551
 H        -7.9975576923       -7.2282104931       -3.1094974794
 H        -6.6241317971       -8.3795036698       -3.0937745097
 H        -9.3564048863       -8.6900945448       -7.5601018068
 H        -8.5884992547      -10.2377247355       -7.9714429611
 H        -9.3728172329       -8.9598291696      -10.0740420912
 H        -7.5812626054       -9.0955441890       -9.9901263651
 H       -11.6488085126       -7.1783725145       -7.9160069355
 H       -12.1895306107       -5.5557239654       -8.2996978585
 H       -11.1698845223       -4.8435996458       -5.9902642823
 H       -10.5527875933       -6.5067772558       -5.8980602855
 H       -12.9815610734       -5.9577963345       -2.2446533227
 H       -11.7419141919       -5.0324939176       -2.8078831938
 H       -10.3587776065       -5.4161023930       -0.8983945289
 H       -10.0459148334       -6.8303485950       -1.7218624522
 H       -11.7247163754       -3.9687488788        2.6901570699
 H       -12.4946949754       -4.8733280384        1.4923525439
 H       -11.4302180120       -3.5185640996        0.9525316053
 H       -11.1887085320       -8.4329251765        2.7948439568
 H       -12.2905780586       -7.0068229787        2.8784814904
 H       -10.7408132372       -6.9712897017        3.3747000101
 H        -8.3923728016       -7.0104609755        1.8072174249
 H        -8.9119086850       -7.6892870075        0.2202423893
 H        -9.2142585675       -8.5354106948        1.6602268639
 H       -14.1184886143       -8.1957618736       -3.0798399400
 H       -14.6489158123       -8.0212727820       -4.7110498001
 H       -14.4484931185       -6.5891774082       -3.6436561766
 H       -11.5008503049       -8.1659383490       -6.0993541193
 H       -13.0089685974       -9.0523463261       -5.7908665250
 H       -11.5050430136       -9.3276722647       -4.7178394003
 H       -10.2160648138       -4.4798632335      -11.1147121286
 H        -8.9355868846       -5.4165720971      -11.8054394040
 H        -8.6860118662       -4.4673477737      -10.3187667808
 H       -10.5410789662       -7.5377623183      -11.6283088913
 H       -11.7504166851       -6.4445272881      -10.8940617205
 H       -11.2013389116       -8.0422616933      -10.1322385384
 H        -4.6387215690       -8.8978100259       -6.0652533967
 H        -5.4074898861      -10.4670787773       -5.7072738052
 H        -5.2102878120       -9.1505094449       -4.4617547907
 H        -7.7382616736      -10.1566065525       -3.9962249017
 H        -7.8975546543      -10.7546848445       -5.6732861566
 H        -8.9422480942       -9.4027906962       -5.0618867462
 H        -1.6953276467       -4.5705137031       -2.2406896709
 H        -1.8878659150       -5.8437488676       -3.4875419370
 H        -2.3031019492       -6.2492345185       -1.8609109231
 H        -3.7086248954       -3.4447532073       -1.3189554782
 H        -4.1258763460       -4.8636035565       -0.4400717569
 H        -5.3033320920       -4.0428385426       -1.4278902535
 H        -4.6514758403       -0.5724085475       -6.5528836286
 H        -5.8553169400       -0.0737319162       -7.6282996082
 H        -4.3288070381       -0.6284484467       -8.2400018479
 H        -7.1897264492       -1.8064816684       -6.0503153892
 H        -7.3892775393       -3.4113474680       -6.8463727367
 H        -7.7446601359       -1.7583391752       -7.5786086203
 H        -0.2559643341       -4.6809721291      -11.8262878057
 H        -0.3920800756       -3.5839628807      -13.1047568638
 H        -1.7125742773       -4.4924649602      -12.7002027259
 H        -0.2084964394       -3.6700557487       -9.5300015850
 H        -0.1559299749       -1.8498971630       -9.4638447601
 H         0.6917352838       -2.7620720478      -10.7491496549
 H         1.8623361368       -1.0596148715      -13.9991629670
 H         2.6301087701       -0.5546973834      -12.4656733545
 H         3.6613955487       -0.6301381813      -13.9597193060
 H         2.9480283022        1.9946057373      -12.1806293531
 H         2.6370880150        3.0488427984      -13.5470242959
 H         4.0271795211        2.0339772795      -13.7038526973
 H         5.3525090408        3.5098023669      -19.0164473092
 H         5.1885533662        2.4180255285      -20.4736698887
 H         6.7529333934        2.8318578918      -20.0195658392
 H         7.4246518931        0.0174844552      -19.3051522478
 H         6.1277301356        0.1440654517      -20.4608494114
 H         5.8115575946       -0.8236017859      -19.0188460051
 H         8.7461715845        4.4824293732      -13.9245994639
 H         9.0481007192        5.9631195394      -14.6952885511
 H         8.6662806809        4.5728884384      -15.6723815132
 H         5.8318696781        6.5401494172      -13.0866458968
 H         7.2673654263        7.3690944036      -13.4379868466
 H         7.2617693600        5.8158405897      -12.5885815504
 H         0.8927818501        4.3088011591      -18.4024804842
 H         2.5535005181        4.0683679771      -17.7482920362
 H         2.3201054195        4.3515787157      -19.4399797385
 H         2.0711750042        8.1443917528      -19.1592155430
 H         1.8391955091        6.6854880435      -20.1057343785
 H         3.5315127904        7.1985300495      -19.5135179744
 H        -3.4361686291        8.7733686488      -15.3630625095
 H        -3.9423813813        8.1941584616      -13.7386142186
 H        -4.0143543452        7.1767566771      -15.2913426469
 H        -0.8243855480        7.6494776555      -12.4861244562
 H        -2.5462555956        7.5321017019      -12.2637186725
 H        -1.8895030588        9.1142068147      -12.8519982342
 Na        0.8939406614        4.2671074789      -15.2376156982
 Na       -6.7623730620       -5.6038220902       -7.8748774350
