232

 C        -2.7245372434        4.8741413911      -14.5538535799
 C        -1.6723978204        5.9691060176      -14.2553952812
 O        -0.5106540682        5.6151082470      -14.2933839442
 C        -2.0959560869        7.5192166487      -14.2228751372
 C        -1.0925362501        8.0607630297      -15.3352528834
 O         0.0510538531        8.3220055868      -15.0430217889
 C        -1.4838186841        8.0174725342      -16.8560240778
 C        -0.2298636623        7.6786165160      -17.5663212604
 C         0.4068626833        6.3710597924      -17.4353433705
 O        -0.2406948488        5.4576055626      -16.9839539444
 C         1.8512534383        6.1562166262      -18.0300650108
 C         2.7382977997        6.3023116058      -16.7442674243
 O         2.4632833107        5.7149744658      -15.7079511058
 C         4.0932667055        7.0708710333      -16.8065820646
 C         4.9317257251        6.8457247573      -15.5663567152
 C         6.3183001184        6.2077112830      -15.8572761690
 O         6.7369765756        6.0646778536      -16.9655312040
 C         7.0381507266        5.4385533660      -14.6534507670
 C         6.1690676728        4.1940408838      -14.5092629708
 O         5.0265341049        4.2679606112      -14.0967088972
 C         6.4572468660        2.8379684894      -15.2333576989
 C         6.3784309545        2.9124801648      -16.7189404593
 C         6.5861832243        1.5707680402      -17.3341435135
 O         7.1108264670        0.6852118014      -16.7383543219
 C         5.7786441097        1.2464829884      -18.6948893333
 C         4.3166495127        0.8592755354      -18.1824671019
 O         3.3220463689        1.3768864367      -18.6346600840
 C         4.1466740898       -0.1160958853      -16.9453333774
 C         2.5908159484       -0.1324799613      -16.5110037148
 C         2.2343730628        1.0982638070      -15.6097302549
 O         2.2476586794        2.2016636647      -16.1432091912
 C         2.1327737014        0.9622714800      -14.0383916309
 C         0.6817543878        1.3685224629      -13.6411822690
 O         0.0899959042        2.3257917898      -14.1214660372
 C         0.0050948076        0.4909669511      -12.5607833107
 C        -0.6500303358       -0.8243769148      -12.9601525601
 C        -1.4213503953       -1.2700739872      -11.6664800743
 O        -2.0965858391       -0.3651178946      -11.2156731184
 C        -1.4581214278       -2.7611002383      -11.2477874594
 C        -2.7146762495       -3.3704856986      -10.4443315356
 O        -2.4663881081       -3.7959064880       -9.3516637658
 C        -4.1015603854       -3.2232376606      -11.0916235279
 C        -4.9436762819       -2.1629932631      -10.3497892828
 C        -5.7840009104       -2.7675455632       -9.1543886004
 O        -6.6162052882       -3.6612908558       -9.3588469353
 C        -5.5509623376       -2.2309205556       -7.7294795662
 C        -4.6475885826       -3.1597759031       -6.8887417939
 O        -4.7561829145       -4.3705908730       -7.1025360365
 C        -3.4726907534       -2.5955716236       -6.0097003589
 C        -3.0146197912       -3.6400408211       -5.0208731868
 C        -4.0170167483       -3.9568417442       -3.9370222139
 O        -5.0874182245       -3.4091792066       -4.0364006564
 C        -3.7397238152       -5.0017325546       -2.7483037760
 C        -4.7211513266       -6.2594851848       -2.8414966987
 O        -4.1878269661       -7.3574504942       -2.9203500360
 C        -6.2629340832       -6.0505911412       -2.8204855397
 C        -6.8338739800       -7.4591577590       -3.3128034220
 C        -7.0670949295       -7.4974168344       -4.8248231412
 O        -7.0589136734       -6.4544187149       -5.4487745654
 C        -7.1810319675       -8.9992220535       -5.7066403446
 C        -7.4099396311       -8.7054084059       -7.2077742135
 O        -6.5200930812       -8.1591968747       -7.8188388509
 C        -8.7653559665       -8.9504399202       -7.8922983376
 C        -8.6512901382       -8.9896059995       -9.4710778239
 C        -8.4751475447       -7.5217766972      -10.0301770925
 O        -7.4072758525       -7.0512437885      -10.2983125040
 C        -9.8133677936       -6.6202231316       -9.9149138185
 C        -9.9659967192       -6.1724611536       -8.4745562686
 O        -9.0345721064       -5.7735901229       -7.8045834949
 C       -11.3353010207       -6.2368698941       -7.9392398506
 C       -11.3939333577       -5.6719299570       -6.4202485654
 C       -12.5817500689       -6.0501359386       -5.5485628069
 O       -13.5555494363       -5.3766198007       -5.6457650378
 C       -12.5743416919       -7.2691611581       -4.6080288786
 C       -11.6305315789       -6.8564952191       -3.4453363575
 O       -10.3771067959       -7.0396739495       -3.5148389794
 C       -12.2638810217       -6.1330354328       -2.3017101266
 C       -11.2748654796       -5.8641042142       -1.2402347425
 C       -11.4781050901       -6.8160425970       -0.0381515874
 O       -12.2590588324       -7.7093556650       -0.1645512366
 C       -10.6069213062       -6.6702303085        1.2290469761
 C       -10.0975311069       -5.2463797765        1.3780941056
 O        -8.9311123758       -4.9707502092        1.5561029093
 C       -11.1412494029       -4.1328732495        1.4766055867
 C       -11.6145676825       -6.9881265225        2.4417609173
 C        -9.4479312870       -7.6840345494        1.3983137748
 C       -14.0569314718       -7.3529519855       -4.0950244178
 C       -12.0816009007       -8.5623781660       -5.3196172609
 C        -9.6341825903       -5.2137879001      -10.5324667346
 C       -11.0124047517       -7.3931698794      -10.4187589920
 C        -5.8079654769       -9.7122134353       -5.4080928292
 C        -8.3326194955       -9.7517112020       -5.1165603363
 C        -2.2402922205       -5.3771512442       -2.6852943601
 C        -4.1724568547       -4.2758113589       -1.4301013294
 C        -5.0606584381       -0.8108692278       -7.7648439093
 C        -6.9111289775       -2.3503434968       -6.9291283095
 C        -1.1378511807       -3.8025406427      -12.4146784393
 C        -0.1813405317       -2.7519611484      -10.3283040371
 C         2.6027263652       -0.4593847769      -13.6394600999
 C         3.0152365921        2.0846414196      -13.4088118052
 C         5.8720021792        2.4406323127      -19.6311327623
 C         6.3957573156        0.0018779892      -19.3675995972
 C         8.5117137022        5.2169817763      -15.1068667193
 C         7.1408858524        6.1654461127      -13.2301074848
 C         2.0623139478        4.6440353678      -18.4376696532
 C         2.1553681866        7.1560841789      -19.1060156749
 C        -3.6012902154        7.7498592627      -14.3999030791
 C        -1.6526773008        7.9748675540      -12.7777743213
 H        -2.7721080084        4.6931648046      -15.6033680798
 H        -3.7282438599        4.9809085529      -14.1960279531
 H        -2.4981775738        4.0129099162      -13.9554228198
 H        -1.9531583757        8.9078477055      -17.2225186257
 H        -2.2438253708        7.2276071554      -16.9177487687
 H         0.5220442759        8.4258007876      -17.3603610993
 H        -0.5504145573        7.8090727047      -18.5601358814
 H         3.7823976276        8.1013254746      -16.9665459595
 H         4.6074461508        6.5831520363      -17.6291027289
 H         4.4155512758        6.1374394188      -14.8830633146
 H         4.9116508291        7.8412404993      -15.1436889780
 H         5.6123638493        2.2096450566      -14.8701254711
 H         7.3218665183        2.3545900185      -14.8288239693
 H         7.0540167666        3.6507349667      -17.1201361822
 H         5.2847310299        3.1069267704      -16.9439796067
 H         4.7928718572        0.2404534777      -16.1466488945
 H         4.4331753076       -1.1216576871      -17.1684926372
 H         2.3289321041       -1.1675762015      -15.9899404454
 H         1.9665538273        0.0616640737      -17.3901469022
 H        -0.8534364068        1.2096918484      -12.3522947425
 H         0.6471078498        0.6241123971      -11.7062021203
 H         0.0867058438       -1.5654633673      -13.4580222106
 H        -1.3701056919       -0.6139367694      -13.7185054822
 H        -4.6650290107       -4.1814659255      -11.1927015063
 H        -3.8451301496       -2.7047984290      -12.0062153717
 H        -5.8530452953       -1.9491193501      -11.0927829736
 H        -4.4359140102       -1.1468198404      -10.2365149206
 H        -3.8617489756       -1.6395726535       -5.5154550666
 H        -2.7511857931       -2.1773739510       -6.6788830122
 H        -2.0566587749       -3.4093470304       -4.5363833677
 H        -2.7192659934       -4.6423944218       -5.5322385287
 H        -6.5129041316       -5.2176044566       -3.4501283974
 H        -6.6572174964       -5.8351473363       -1.8020798873
 H        -7.7300691255       -7.6747899659       -2.9482986701
 H        -6.1376326749       -8.2332358649       -2.9092088469
 H        -9.4378381368       -8.2307313596       -7.5688849091
 H        -9.2049226724       -9.8934606686       -7.6205144413
 H        -9.5226620796       -9.4823383800       -9.8980685514
 H        -7.7645818456       -9.4863778093       -9.6851621018
 H       -11.6585830770       -7.3037900392       -7.9600087619
 H       -11.9387807913       -5.6583910425       -8.6484833597
 H       -11.3624141467       -4.5736274701       -6.4792869784
 H       -10.5154630234       -6.0396921004       -5.9591867664
 H       -13.1568336265       -6.6606606240       -1.9014910663
 H       -12.7657267018       -5.2542159163       -2.7084902153
 H       -11.1462679847       -4.8140883938       -1.0905631421
 H       -10.2740111681       -6.2013860419       -1.5137763883
 H       -11.3676563690       -3.8359923225        2.5166016646
 H       -12.0340097058       -4.4357602367        0.9554472260
 H       -10.6788880192       -3.1782622607        1.0157636984
 H       -12.1319859125       -7.9742598796        2.2853383129
 H       -12.2570601505       -6.0574177372        2.5777242076
 H       -11.1203481423       -7.0808504175        3.3657478569
 H        -8.7825655768       -7.5450433693        2.2987515995
 H        -8.7432544966       -7.6089139392        0.5780557422
 H        -9.8387836309       -8.6823534318        1.4036328552
 H       -14.1697413018       -8.2304764146       -3.3924002471
 H       -14.5989667188       -7.7685199917       -4.8918294292
 H       -14.5237741307       -6.4557060504       -3.6897158945
 H       -11.0477686809       -8.5997762342       -5.0898868532
 H       -12.4346107218       -8.7989952752       -6.3453745367
 H       -12.4396341275       -9.3405040406       -4.6475985224
 H       -10.2161019078       -4.4315516660       -9.9529883447
 H        -9.9508200099       -5.2867894798      -11.6273493308
 H        -8.5497410681       -5.0215718946      -10.4925856870
 H       -10.8735725784       -7.7294219334      -11.4048140161
 H       -11.9381509464       -6.8323754340      -10.4186439506
 H       -11.1930816953       -8.2373246630       -9.8085539734
 H        -4.9444665785       -9.2413233678       -5.9105527488
 H        -5.9287502059      -10.7241204900       -5.6457724889
 H        -5.5232750877       -9.6861058667       -4.3686928644
 H        -8.0338802594      -10.1774679817       -4.1989995789
 H        -8.5628756941      -10.6373439551       -5.7666873049
 H        -9.1380573073       -9.0563132405       -4.9751745034
 H        -1.6564389061       -4.4715716443       -2.7356214571
 H        -1.9635635098       -6.0562431026       -3.5182250170
 H        -2.0543625920       -5.9528390389       -1.7805982313
 H        -3.4803045844       -3.5508572857       -1.0139661417
 H        -4.2044761424       -5.1040321852       -0.6507579396
 H        -5.0986546904       -3.7631471634       -1.3750561479
 H        -5.5235803320       -0.1676833407       -6.9728674018
 H        -5.1760014042       -0.3470537530       -8.7512204302
 H        -3.9602000824       -0.7428162381       -7.7193176442
 H        -6.8420140192       -2.0792778559       -5.8900752703
 H        -7.1272586456       -3.4250367449       -6.8979217004
 H        -7.6784804129       -1.7171261095       -7.3000475978
 H        -1.2321763120       -4.8507162663      -12.0897048198
 H        -0.1406072434       -3.7152745593      -12.9072874179
 H        -1.8681405122       -3.6467858729      -13.2859839338
 H         0.0344969996       -3.7237809120       -9.8908230548
 H        -0.1767988763       -1.8787726622       -9.6814188932
 H         0.6683802183       -2.5200173796      -10.9596152660
 H         1.9865949302       -1.2802410183      -14.0476931005
 H         2.5522528138       -0.5577309984      -12.5595799352
 H         3.5906861321       -0.6171646545      -14.0310090658
 H         2.5957208280        2.3444223264      -12.4319354685
 H         2.8866182065        2.9779781465      -13.9923417806
 H         4.0740335600        1.7998185403      -13.5094524430
 H         5.2696685240        3.3227161527      -19.2991211297
 H         5.6616123216        2.2131532137      -20.6505576091
 H         6.8695347164        2.6639125726      -19.7399236875
 H         7.1408007935        0.3680348629      -20.0514945300
 H         5.6615144506       -0.5772797807      -19.8422100639
 H         6.9432217986       -0.6380617828      -18.5706751591
 H         9.0994593697        4.8423709346      -14.1898084673
 H         8.8575896530        6.2342390665      -15.3570172367
 H         8.6946568856        4.6284208407      -15.9867201204
 H         6.2818593641        6.8069111060      -12.9538510830
 H         7.9647383486        6.9848388055      -13.1367159728
 H         7.4130208242        5.3039982623      -12.5768070856
 H         1.3131196359        3.8982800000      -18.0253189348
 H         2.9529301541        4.2375596082      -18.0902483151
 H         2.1169232532        4.5822669746      -19.5456714950
 H         2.2323687047        8.0456055151      -18.5562685244
 H         1.3202953730        7.4268949246      -19.7365876622
 H         3.0478997798        6.9567037170      -19.6143386549
 H        -3.9623273938        8.5659855578      -13.8257885209
 H        -4.0695770170        6.8379262038      -14.1756802536
 H        -3.7972034125        8.1025851202      -15.3918613238
 H        -0.6618668659        7.6241449421      -12.5922829983
 H        -2.1969359779        7.4690634009      -11.9137463633
 H        -1.8284792570        9.0314524169      -12.9243048563
 Na        0.8141351835        3.9853691931      -15.4788401216
 Na       -6.6174169097       -5.7296267819       -7.8527707020
