232

 C        -2.4000386894        4.7515412148      -14.2076162893
 C        -1.3860527415        5.8233894510      -14.0737469792
 O        -0.1686670449        5.6321155226      -14.1873854317
 C        -1.8880989656        7.2822218343      -13.9392974111
 C        -1.3369714028        8.1909257279      -15.1635902915
 O        -0.5709198032        9.1010380230      -15.0396978018
 C        -1.6606522374        7.6863834256      -16.6202301875
 C        -0.4598770037        7.6789212891      -17.6698243612
 C         0.2895838809        6.3292847257      -17.6253654877
 O        -0.1566696340        5.3620462638      -17.0850109913
 C         1.7946277004        6.2787581066      -18.1486859388
 C         2.7119233313        6.1225734417      -16.8834504696
 O         2.5126365365        5.1872563844      -16.1435988997
 C         3.8230051003        7.0698378054      -16.6180309912
 C         4.7037737489        6.7299908889      -15.3403713093
 C         6.1483978519        6.2681837507      -15.7965048217
 O         6.5570907300        6.7269156793      -16.8743021422
 C         7.2038812028        5.6492956307      -14.8382327836
 C         6.8604233774        4.1798797127      -14.7559245464
 O         5.8823849810        3.8136402199      -14.0869327279
 C         7.3916278479        3.1980198912      -15.9258326187
 C         6.1046776387        2.6148236669      -16.4174545947
 C         6.4183666651        1.1731425501      -17.0579483156
 O         7.1837471849        0.4281375764      -16.4259715474
 C         5.7840948083        0.6993912609      -18.4049705426
 C         4.2042946143        0.5492105294      -18.0491936565
 O         3.3074594843        1.0805154235      -18.6919142329
 C         3.9118713662       -0.3089998437      -16.7477897974
 C         2.3968647756       -0.3300942805      -16.4082600836
 C         1.9483330766        1.0282015381      -15.7436209218
 O         1.4664905155        1.9226610364      -16.4205160600
 C         2.1950005126        1.1289952128      -14.2039041656
 C         0.7584921547        1.3588603015      -13.5750218886
 O        -0.0538677580        2.1551148134      -13.9795488883
 C         0.3703437861        0.6132148848      -12.3332257301
 C        -0.3486265250       -0.7132535741      -12.7802285978
 C        -1.2556666825       -1.1381055876      -11.6271230852
 O        -1.5490720646       -0.2724026406      -10.8078205783
 C        -1.5368144699       -2.7035229522      -11.4789630268
 C        -2.8413941150       -3.0102908936      -10.6240407963
 O        -2.8794714299       -2.9855528017       -9.4449780074
 C        -4.2640715681       -3.0686096077      -11.3427717953
 C        -5.3391788540       -2.3454066487      -10.6022935868
 C        -5.7597045840       -3.1655408322       -9.2936700817
 O        -6.2402653040       -4.2396568880       -9.5386255993
 C        -5.5281125623       -2.5760271948       -7.8625564672
 C        -4.5057411846       -3.5946196695       -7.2120889991
 O        -4.6450285405       -4.7544621286       -7.0568979365
 C        -3.2099296568       -3.0019369636       -6.6115235237
 C        -2.7494203377       -3.8790298987       -5.3662760856
 C        -3.8335987452       -3.8927947618       -4.2494921973
 O        -4.8934447188       -3.3693998119       -4.2893205387
 C        -3.6330342831       -4.8773356288       -2.8813176070
 C        -4.6327893288       -5.9981084408       -3.1981254585
 O        -4.2794260851       -6.9249306409       -3.9168585799
 C        -6.1029410339       -5.8418566271       -2.8648261212
 C        -7.0367331998       -7.0935589985       -3.3944673504
 C        -6.9357532968       -7.2734341416       -4.9315182923
 O        -6.7191549364       -6.3945766349       -5.7329564689
 C        -7.2511279275       -8.7962958159       -5.4310493320
 C        -7.3212046353       -8.7743426955       -7.0510717422
 O        -6.3442519488       -8.4883658881       -7.6994409045
 C        -8.5951016209       -9.3180588685       -7.7819544613
 C        -8.4116470706       -9.1632130500       -9.2889604142
 C        -8.5040083038       -7.7217686439       -9.7250818085
 O        -7.5060964775       -7.0267295947       -9.7827495798
 C        -9.9285550942       -6.9794372293       -9.8469173636
 C        -9.9720984220       -6.4283884006       -8.3615200382
 O        -8.8949463642       -6.0816693379       -7.8916657205
 C       -11.3235746736       -6.2376834295       -7.6307295984
 C       -11.1728434388       -5.6044253157       -6.1762708320
 C       -12.5611105297       -5.6134603116       -5.4712731034
 O       -13.3713834347       -4.7167567417       -5.6628108925
 C       -12.8445623959       -6.7669433579       -4.5364491253
 C       -11.9179128434       -6.5679399054       -3.2581340849
 O       -10.8833388945       -7.2176746063       -3.2277674304
 C       -12.3635683902       -5.4880403083       -2.2883383249
 C       -11.5080109363       -5.5260773435       -1.0518433508
 C       -11.6061995951       -6.6195775499        0.1076029189
 O       -12.1174287216       -7.6686845091       -0.1927669268
 C       -10.9354484413       -6.2979199439        1.5558158107
 C        -9.9262341602       -5.1378124648        1.3072207019
 O        -9.2010610115       -5.2528163928        0.3157509172
 C        -9.8123264522       -3.9044247020        2.2190355579
 C       -11.9393648085       -5.9320460792        2.6063599473
 C       -10.1303202436       -7.6847876817        1.9515280258
 C       -14.2945833375       -6.7484850863       -4.0976890077
 C       -12.5561342792       -8.0544049192       -5.3028204008
 C        -9.7956093110       -5.9469433332      -11.0655643586
 C       -11.2308056140       -7.8285233390      -10.0856065649
 C        -6.1112531931       -9.8068042373       -5.1473667505
 C        -8.5862988407       -9.1887592051       -4.6696408498
 C        -2.2454089006       -5.5140311201       -2.6700443145
 C        -4.1072446153       -3.9945582945       -1.6237539366
 C        -5.1906586106       -1.0352602444       -7.7487533261
 C        -6.8317573458       -2.7605916833       -7.1586585668
 C        -1.6019380002       -3.6223902344      -12.7378708999
 C        -0.2886234086       -3.1526859540      -10.5324395784
 C         2.9291481080       -0.0998422042      -13.6205809110
 C         2.8356544708        2.4428210971      -13.8149873200
 C         5.9933574036        1.7646092062      -19.5437869318
 C         6.3460788992       -0.6607023381      -18.7883150220
 C         8.5526262199        5.9827248355      -15.5288014028
 C         7.1676622926        6.2828910052      -13.4294908131
 C         1.8297850842        4.9053121151      -18.9009882295
 C         2.2321928007        7.4605661432      -18.9363346427
 C        -3.4108601631        7.3440747527      -13.6678164637
 C        -1.1816424268        7.9464414583      -12.5600393216
 H        -2.9149606341        4.7028973142      -15.1779782879
 H        -3.2776505927        4.8140508021      -13.5210762141
 H        -1.8290648255        3.7918275159      -14.1194195392
 H        -2.5046935393        8.2764193637      -16.9428975017
 H        -2.0640514536        6.6698419993      -16.6078029735
 H         0.4128690891        8.3751894733      -17.3334289199
 H        -0.7739388744        8.0285145925      -18.6867944691
 H         3.3816388166        8.0695273118      -16.4491237041
 H         4.4579983666        7.2664723327      -17.4959915331
 H         4.2554449647        5.8615580638      -14.7735441331
 H         4.7736033476        7.6031366071      -14.6787703821
 H         8.0199205597        2.3588654398      -15.6257965395
 H         7.7790017296        3.6782261148      -16.7801399902
 H         5.6678203925        3.2890008900      -17.1856860724
 H         5.4799209140        2.5287163367      -15.4739637096
 H         4.5866335392        0.0667237235      -15.9524472226
 H         4.2957843226       -1.3382151553      -16.8589239547
 H         2.1156134774       -1.2598819144      -15.8999317182
 H         1.7530074886       -0.3816155728      -17.3621321598
 H        -0.4430274747        1.1249020890      -11.7735450991
 H         1.2541665306        0.3000306324      -11.6723470799
 H         0.3249470281       -1.5188711051      -13.1100478062
 H        -0.9184052291       -0.5696528068      -13.6686397006
 H        -4.5319534152       -4.1162674676      -11.4125924756
 H        -4.2429261538       -2.6870827963      -12.3517308646
 H        -6.2430003884       -2.3925053017      -11.2588290704
 H        -5.1285416608       -1.2379271082      -10.3257403469
 H        -3.3123694886       -1.9693806788       -6.2955067278
 H        -2.4119007301       -3.2198903008       -7.2935707039
 H        -1.8062235762       -3.5116833678       -5.0171299032
 H        -2.6043495961       -4.9970552438       -5.6930698779
 H        -6.4249928454       -4.9536713852       -3.3229836744
 H        -6.4682570554       -5.7288507486       -1.8719729236
 H        -8.0957503963       -6.9767624652       -3.1107752810
 H        -6.7000430309       -7.9293984035       -2.9490422378
 H        -9.5204924385       -8.7469000904       -7.4092423611
 H        -8.6823802856      -10.4078684506       -7.4216321480
 H        -9.1591647788       -9.7381022236       -9.9458515381
 H        -7.4095255091       -9.5669796277       -9.6472676560
 H       -11.7337350898       -7.2365392777       -7.4441505763
 H       -12.0274640477       -5.7326822225       -8.2984530319
 H       -10.6656932424       -4.6006201728       -6.1020034784
 H       -10.4998739287       -6.3026790284       -5.6549910490
 H       -13.4343888370       -5.5802256027       -2.1219076156
 H       -12.2071692024       -4.5635284050       -2.7017248510
 H       -11.6508825351       -4.4778767298       -0.6128996918
 H       -10.4252338222       -5.6712654348       -1.3348817664
 H        -9.0277973159       -3.9122717176        2.9239894406
 H       -10.7787728544       -3.5814764044        2.6428897943
 H        -9.6646827380       -3.1157630844        1.5558419610
 H       -12.6788763593       -6.6804137270        2.6468556782
 H       -12.4960163794       -5.0872144618        2.2850774137
 H       -11.5321520548       -5.7637756398        3.6517803953
 H       -10.0609344509       -7.8649098001        3.0640612456
 H        -9.1400690324       -7.4754805921        1.5826902981
 H       -10.3677774089       -8.5772213467        1.4318626189
 H       -14.5021649644       -7.5055206460       -3.3799281375
 H       -14.9150908545       -6.9232862071       -5.0308590383
 H       -14.7262531067       -5.8411386324       -3.5784231536
 H       -11.5564890247       -7.9767200599       -5.7435904401
 H       -13.2100398357       -8.1887895288       -6.1999190771
 H       -12.6485328384       -8.8898081301       -4.5897804288
 H       -10.2650897037       -5.0669378646      -10.8050951085
 H       -10.2246417417       -6.4165669110      -11.9057470599
 H        -8.7548957993       -5.8138489303      -11.1650210442
 H       -11.0050970769       -8.5793345734      -10.8667094843
 H       -11.9185809099       -7.0749231063      -10.4252793645
 H       -11.6007041839       -8.3519627475       -9.1204912073
 H        -5.4693572246      -10.0174259749       -5.9995333181
 H        -6.7166519583      -10.7791358849       -5.0553371072
 H        -5.5824338982       -9.7216811592       -4.1589076831
 H        -8.3166128542       -9.0496294437       -3.5688178907
 H        -8.8748745577      -10.2453314888       -4.8185585567
 H        -9.4085341978       -8.6357878072       -4.9727835301
 H        -1.4404357695       -4.8073465913       -2.9372113877
 H        -2.1607842278       -6.3848266168       -3.2743614706
 H        -2.0083598517       -5.7112227777       -1.6165491508
 H        -3.2294338195       -3.9430050966       -0.9600717723
 H        -4.8258508959       -4.4896152732       -0.9909396946
 H        -4.4721190760       -2.9928727222       -1.8045258216
 H        -4.8401288082       -0.8747207891       -6.7627585881
 H        -6.0489263057       -0.4133253889       -7.7876640334
 H        -4.3970219009       -0.7189151929       -8.3742833554
 H        -6.6279959925       -2.6613670018       -6.0915777224
 H        -7.2329213482       -3.7737870880       -7.3976559217
 H        -7.6431793916       -2.1494394959       -7.5065167590
 H        -2.1991573096       -4.4688188644      -12.5799388562
 H        -0.6421678041       -3.9775255885      -13.0854590169
 H        -2.0457550420       -3.1452137080      -13.5677823382
 H        -0.2181640577       -4.2523581778      -10.2824289220
 H        -0.1683291910       -2.5856584394       -9.5881585009
 H         0.5090340001       -2.9165680644      -11.2366675613
 H         2.4670568066       -0.9686046688      -13.8647384918
 H         3.0273087149       -0.1094783869      -12.4855468353
 H         3.9704443435       -0.1452983012      -13.8693149163
 H         3.0530524780        2.4756791885      -12.7136848661
 H         2.2318867195        3.1956229556      -14.2044670275
 H         3.8207719605        2.4650062535      -14.2098158471
 H         5.5723859602        2.7936707245      -19.3264221994
 H         5.5546878487        1.4547474895      -20.4588254091
 H         7.0448159475        1.9862094694      -19.5744531135
 H         7.3421173069       -0.5437986628      -19.1773689561
 H         5.6957362807       -1.0268885265      -19.6329043088
 H         6.3055342369       -1.2913434842      -17.9110286571
 H         9.3390486759        5.6621432602      -14.9090533820
 H         8.6948988499        7.0157474801      -15.6213105962
 H         8.6694704963        5.4068235030      -16.4665019229
 H         6.1891761409        6.1110724516      -12.9282757390
 H         7.4384145444        7.2903056522      -13.5319909887
 H         7.8093063027        5.8094521431      -12.6897474957
 H         1.0997793136        4.2550075556      -18.4981455331
 H         2.7858039531        4.2970196220      -19.0533906754
 H         1.4661037029        5.1345809058      -19.8252468214
 H         1.8741698508        8.2973185100      -18.2818121979
 H         2.0024617333        7.4757037488      -20.0238899866
 H         3.2958979827        7.6166027238      -18.7702881273
 H        -4.0471463194        6.6801202742      -14.3573509015
 H        -3.8469138925        8.2387523289      -14.0685111048
 H        -3.5730057584        7.1248808163      -12.5844094111
 H        -0.1348900665        7.9017868089      -12.6541973984
 H        -1.6903362383        7.5798859162      -11.7089543762
 H        -1.3374265818        9.0176877935      -12.5790157638
 Na        0.7099280192        3.8835647559      -15.4183733474
 Na       -6.5001539039       -5.9718318783       -7.9398074036
