232

 C        -2.3023860374        4.6987658038      -14.2778853263
 C        -1.3650207675        5.8894191376      -14.0844023032
 O        -0.1523829733        5.7565804196      -14.1454096621
 C        -1.8552149127        7.3554724822      -13.7646717001
 C        -1.3877802652        8.1340223265      -15.0716780212
 O        -0.6653268151        9.1181349512      -15.0137101051
 C        -1.7578370032        7.5733488792      -16.4569916596
 C        -0.5639128744        7.6527660958      -17.4725078717
 C         0.3062883682        6.2733931896      -17.4794948986
 O        -0.2098194171        5.2223107449      -17.0887679475
 C         1.8182071516        6.2049009753      -18.0038666191
 C         2.7551839791        5.9205613428      -16.8175091439
 O         2.6699789630        4.9351929615      -16.1113937436
 C         3.8116430463        7.0079293875      -16.4318334768
 C         4.7209209094        6.6154308074      -15.3498040529
 C         6.1628880027        6.5580065479      -15.8926812023
 O         6.3554278939        6.5786249710      -17.0851576593
 C         7.2109483351        5.9361724197      -14.9431983744
 C         6.8392811818        4.2912586525      -14.9642753137
 O         6.2305335208        3.9064613236      -14.0010074311
 C         7.2155643140        3.5085930388      -16.1996525385
 C         6.0206448032        2.4660122083      -16.5318419333
 C         6.4844397591        1.0651671299      -16.8945027697
 O         7.3116780632        0.3521702090      -16.4348224481
 C         5.7793763624        0.5430464964      -18.2717604918
 C         4.2211415163        0.4309343808      -17.9685677148
 O         3.4631838879        1.1615447944      -18.5210485175
 C         3.7905434344       -0.5612853674      -16.7799447082
 C         2.3128962232       -0.3583699859      -16.4949927325
 C         2.0025337006        0.9823734644      -15.8482721525
 O         1.4134755420        1.8384207535      -16.5080693484
 C         2.3341595151        1.2871957559      -14.2220387163
 C         0.8659287264        1.4536918814      -13.5851924916
 O         0.1310666171        2.3432506975      -14.0800685079
 C         0.3716956937        0.5054901118      -12.5353242804
 C        -0.3354127291       -0.8967381848      -12.7787974943
 C        -1.2386017727       -1.3028663255      -11.6066426372
 O        -1.6154653159       -0.4980495837      -10.8164421468
 C        -1.5611306363       -2.8076475698      -11.4073306358
 C        -3.0109678788       -2.8726303271      -10.7411099594
 O        -3.1046369441       -3.1324921052       -9.5446373859
 C        -4.2869762247       -2.7569269221      -11.5737583489
 C        -5.4949866698       -2.2866371784      -10.6514594957
 C        -5.7758389253       -3.2212187995       -9.3637479186
 O        -6.2875619698       -4.3255759987       -9.6011556757
 C        -5.5527539903       -2.7836047257       -7.8693806579
 C        -4.4790651223       -3.7288459270       -7.1769638796
 O        -4.5983675125       -4.9577652370       -7.2695339011
 C        -3.1814673955       -3.1875921530       -6.4913372222
 C        -2.7185517871       -4.0452280771       -5.2894650907
 C        -3.7667330765       -3.8447783056       -4.1458493973
 O        -4.7034504104       -3.0512627584       -4.3238277192
 C        -3.6445499015       -4.8178185996       -2.9905359184
 C        -4.7760572931       -5.9784265436       -3.3634508940
 O        -4.3510271019       -6.9562832640       -3.9132355055
 C        -6.2155424296       -5.7763150711       -3.0417602510
 C        -7.0421554343       -7.0223084657       -3.2250966418
 C        -7.1114802356       -7.3110156639       -4.7876099202
 O        -6.9209844036       -6.4240705705       -5.5923819052
 C        -7.2342042024       -8.8185936686       -5.2682177072
 C        -7.2370142589       -8.8287117706       -6.8692399290
 O        -6.2829678192       -8.4556451380       -7.5149008342
 C        -8.5600517654       -9.3382831661       -7.6991213595
 C        -8.4104414376       -9.1572640396       -9.2387154300
 C        -8.5045373594       -7.6925687947       -9.7355081408
 O        -7.5087555094       -7.0544748249      -10.0527022336
 C        -9.8916001632       -6.9639440595       -9.7193904274
 C        -9.9466784328       -6.3631786390       -8.3041951031
 O        -8.9676096745       -5.8867147094       -7.7480160441
 C       -11.2557693049       -6.2499759203       -7.6110556701
 C       -11.1539220290       -5.6764955572       -6.2230042631
 C       -12.5137680127       -5.6002753786       -5.5205960620
 O       -13.1331601283       -4.6038582128       -5.7616898090
 C       -12.9747989564       -6.7009536033       -4.5085654430
 C       -12.0029531592       -6.4202694141       -3.2685753061
 O       -10.9152211005       -7.0070442327       -3.2562324992
 C       -12.5692770764       -5.5513397120       -2.1209680975
 C       -11.5692020818       -5.3605811543       -0.9759617324
 C       -11.6322534300       -6.4768143913        0.0589264405
 O       -12.0815453528       -7.5547854957       -0.2464217797
 C       -10.9775168564       -6.2124395035        1.4124780783
 C        -9.7689504578       -5.1718870227        1.1793782290
 O        -9.0922028836       -5.2857604649        0.1828273276
 C        -9.5068499319       -4.0737896584        2.1851533457
 C       -11.9623460118       -5.7543965955        2.5843100547
 C       -10.3865787227       -7.5381272709        1.9814757144
 C       -14.4553061359       -6.4446544932       -4.1352421631
 C       -12.8404367206       -8.1662121302       -4.9682370847
 C       -10.0006743644       -5.8159102762      -10.8171632703
 C       -11.0819608924       -8.0358521894      -10.0013735928
 C        -5.9960319821       -9.7405415301       -4.7200853210
 C        -8.5852390328       -9.4005274649       -4.7417612595
 C        -2.2541411442       -5.2931659266       -2.8939683832
 C        -4.0197507349       -4.1769988283       -1.6754882991
 C        -5.0934037809       -1.2944280979       -7.8138762737
 C        -6.8283377063       -3.0775896754       -7.0399372281
 C        -1.5718375839       -3.4993627832      -12.7397729915
 C        -0.5777902321       -3.3864899801      -10.4536706127
 C         3.1097090486        0.1593687979      -13.6066786601
 C         3.2506009838        2.6486832680      -14.0891248945
 C         5.9591299529        1.5605569922      -19.4438976266
 C         6.2788257637       -0.8986162097      -18.6951182316
 C         8.6409430763        6.1345137547      -15.4019120259
 C         7.1079457598        6.4044199652      -13.5154900534
 C         1.8096787385        5.1913539493      -19.1338938278
 C         2.1408712841        7.5401556517      -18.7663905818
 C        -3.4012817702        7.7023073818      -13.7888289015
 C        -1.0406267930        7.8429024373      -12.6057108560
 H        -3.0807927694        4.9153673896      -15.0402331120
 H        -2.9552173693        4.6007941660      -13.4228276869
 H        -1.8221424811        3.7997690469      -14.6506450591
 H        -2.5745304579        8.1894218291      -16.9144020977
 H        -2.1092477227        6.5259015278      -16.3639868345
 H        -0.0079867180        8.5078546962      -17.2889859062
 H        -0.9784675149        7.7783646505      -18.4742240086
 H         3.4304020473        8.0219186665      -16.2625997374
 H         4.4639279438        7.2161645577      -17.2981418892
 H         4.4180589101        5.6860973497      -14.8890505912
 H         4.9025215645        7.3702582318      -14.5630499001
 H         8.0492588251        2.8880407629      -15.8482902213
 H         7.4672173369        4.1173765040      -17.0965904716
 H         5.2946144100        2.8928255756      -17.2614730567
 H         5.5268814117        2.2546563632      -15.5966597007
 H         4.4918957754       -0.4590342927      -15.9706423795
 H         3.9004656858       -1.5992838963      -17.0755916453
 H         1.8788673075       -1.2185036232      -15.9154272163
 H         1.7566416572       -0.4104903894      -17.3712487609
 H        -0.4760119730        1.1223688480      -12.2099780302
 H         1.0596352352        0.3240561785      -11.7366604385
 H         0.3863235491       -1.6795767268      -13.0756382731
 H        -0.8766476893       -0.6848287599      -13.7503657381
 H        -4.4948911990       -3.7808676605      -12.0313320195
 H        -4.1363607852       -2.1536740414      -12.5000567738
 H        -6.4394491183       -2.4646742192      -11.1896861737
 H        -5.5248901616       -1.2621157297      -10.3621834675
 H        -3.4929558449       -2.1892007203       -6.0704472923
 H        -2.4159690127       -3.2378447959       -7.3246834801
 H        -1.6900346948       -3.7475599000       -4.8878643181
 H        -2.7154696273       -5.0437939966       -5.6300364081
 H        -6.7675660698       -4.9940761312       -3.6492121740
 H        -6.4282601547       -5.4392818623       -2.0081762996
 H        -8.0463956144       -6.8763822756       -2.8926784999
 H        -6.5436102597       -7.8978449981       -2.5642058656
 H        -9.3447305424       -8.8295425957       -7.2062581844
 H        -8.7030016630      -10.3745729763       -7.6046976070
 H        -9.1216475580       -9.7900156024       -9.7202968403
 H        -7.5126878339       -9.5953003694       -9.5599465501
 H       -11.7899109202       -7.2365577965       -7.5774909900
 H       -11.9508574078       -5.6097866468       -8.2108211738
 H       -10.7958752223       -4.6738516255       -6.2365287631
 H       -10.4048553046       -6.2106942984       -5.6289896007
 H       -13.4641418265       -5.9943838827       -1.6955445102
 H       -12.8501288422       -4.4995849900       -2.5557873258
 H       -11.7314754423       -4.4045778220       -0.5677467904
 H       -10.5271123257       -5.5119645142       -1.2219418201
 H        -9.1930031131       -4.7112793945        3.0277754253
 H       -10.3812533246       -3.5686653341        2.4998252391
 H        -8.6931860727       -3.2856734054        1.9157760364
 H       -12.7789080622       -6.4301220361        3.0127320744
 H       -12.4942211958       -4.7797665726        2.2295399184
 H       -11.3118104830       -5.4532828029        3.3883156791
 H       -10.4908718423       -7.6158347874        3.0428507843
 H        -9.3852043760       -7.8212346323        1.6054217109
 H       -11.0567069518       -8.3355289255        1.5452862381
 H       -14.7301087241       -6.8047302683       -3.0905005963
 H       -15.1132135237       -6.8984335807       -4.8257971550
 H       -14.6692964440       -5.4074898070       -3.9730990668
 H       -11.7948547276       -8.4045188733       -5.1915771875
 H       -13.3205393995       -8.3067380572       -5.9434441381
 H       -13.3383278073       -8.7872471464       -4.2283501710
 H       -11.0786388919       -5.5103141267      -10.8941222452
 H        -9.6892313862       -6.3303994039      -11.7414204334
 H        -9.3685019034       -4.9944888827      -10.4639900883
 H       -11.1291452633       -8.1638463029      -11.0219245633
 H       -11.9598907265       -7.5352912967       -9.6264911072
 H       -10.8130341782       -8.9222453097       -9.5503814440
 H        -5.0491568536       -9.2836692780       -5.1349131579
 H        -5.9550361564      -10.7644641840       -5.0162883459
 H        -6.0147039848       -9.6189645562       -3.6431412285
 H        -8.6248553289       -9.6184731891       -3.7264402733
 H        -8.7109644245      -10.3764706757       -5.2410776721
 H        -9.4627487662       -8.7896832248       -5.1171098086
 H        -1.6146606434       -4.5945011528       -2.4142975678
 H        -1.8370279414       -5.6258754655       -3.8689499652
 H        -2.1965573117       -6.1784432713       -2.2785532055
 H        -3.3486382016       -3.3926002326       -1.3971184435
 H        -3.9464719340       -4.9609343771       -0.8711474031
 H        -5.0250859539       -3.7847692670       -1.7270781229
 H        -5.3185603075       -0.7908974974       -6.8633903842
 H        -5.6724025825       -0.7632805454       -8.5577326143
 H        -4.0113487772       -1.1939965163       -7.9545939414
 H        -6.5236987270       -2.9318273961       -5.9949256730
 H        -7.2977857026       -4.0338917731       -7.2720652789
 H        -7.6912491417       -2.4059495880       -7.2778256256
 H        -1.7253369112       -4.6103758533      -12.7869068613
 H        -0.6140103084       -3.3485950077      -13.2540278712
 H        -2.2625043871       -2.9473149413      -13.4600098656
 H        -0.6818677478       -4.4129959289      -10.3619116587
 H        -0.9493927749       -3.0940874626       -9.5009810527
 H         0.4327906807       -3.0783149883      -10.6794417684
 H         2.6143940344       -0.8547788140      -13.6166427541
 H         3.4072476283        0.2654046059      -12.6033816853
 H         4.0668575456        0.0366940498      -14.1041024473
 H         3.7499353048        2.5780024565      -13.1696506043
 H         2.6905147065        3.5704844664      -14.1925872017
 H         4.0986107876        2.6096747323      -14.8197379663
 H         5.5913922377        2.5458460909      -19.2162599196
 H         5.4288292248        1.1708869092      -20.3271785416
 H         6.9992589436        1.7116586536      -19.6049229276
 H         7.0553240146       -0.7500224835      -19.4357137522
 H         5.5339786555       -1.4321290509      -19.1709634800
 H         6.6398529538       -1.3926356007      -17.7393266724
 H         9.4727853624        5.6054253320      -14.8247652615
 H         8.8741404604        7.2233891710      -15.2475940013
 H         8.7472139831        5.7938985355      -16.4107686092
 H         6.5560557180        5.7059460570      -12.9372049974
 H         6.7864854441        7.5180025297      -13.3534060471
 H         8.1043114990        6.2509874325      -12.9948084948
 H         1.7265260851        4.1030546743      -18.8655411065
 H         2.6914899356        5.3615813964      -19.6225277591
 H         0.9955334004        5.3542925210      -19.9127745165
 H         2.5747311093        8.3735009865      -18.2915257896
 H         1.1418592253        7.6706210828      -19.1460706131
 H         2.7917737906        7.3273473249      -19.5992804875
 H        -4.0826616500        6.9083592234      -13.8708800932
 H        -3.6448729083        8.2314486930      -14.6998907648
 H        -3.6835428015        8.1751479198      -12.8672036083
 H        -0.0246041143        7.7934094368      -12.9556920841
 H        -1.4565401793        7.3980698276      -11.6499595708
 H        -1.2222126901        8.9001040555      -12.3333303323
 Na        0.7508049432        4.0265994826      -15.5625611680
 Na       -6.4276476044       -6.1548658513       -8.0026558768
