232

 C        -2.4495999629        4.8144300492      -14.2446941114
 C        -1.3254286046        5.8855630129      -14.1076707476
 O        -0.1300932182        5.6099302461      -14.2098052158
 C        -1.7487901540        7.3862910218      -13.7824665226
 C        -1.2734144827        8.2075430116      -15.0964640426
 O        -0.6019913040        9.1872730331      -15.0759316760
 C        -1.7010061321        7.6551563112      -16.4487781832
 C        -0.5886405949        7.6445550904      -17.4690371981
 C         0.1383387872        6.2994967504      -17.4161156983
 O        -0.3945216843        5.2413244089      -17.1305008177
 C         1.7177016527        6.3695575229      -17.9459670556
 C         2.7170947162        6.1207468297      -16.8475694965
 O         2.7831734177        4.9310613755      -16.4983890218
 C         3.6326266018        7.1497788465      -16.3913867370
 C         4.7952920182        6.7178767968      -15.3850576234
 C         6.2405264003        6.4529689892      -15.9929285509
 O         6.5030718437        6.5546088434      -17.1612133853
 C         7.2993169918        5.9522276676      -15.0074339813
 C         6.9651742459        4.4023365323      -14.9770484993
 O         6.4270233025        3.8272054499      -14.0427289133
 C         7.1590518578        3.5788294611      -16.3372788291
 C         6.1347614457        2.4308979870      -16.3905626193
 C         6.5918498812        0.9991741032      -16.9835456458
 O         7.4966109912        0.3877026800      -16.4046775592
 C         5.8027083719        0.4382760891      -18.2533499683
 C         4.2639190697        0.4464810089      -17.9224020767
 O         3.4984538975        1.2830045281      -18.3534154576
 C         3.6985034750       -0.7439462654      -17.0332859332
 C         2.3291271399       -0.3989680068      -16.3877369408
 C         2.0288590350        1.0012898716      -15.7738028380
 O         1.5604651739        1.8848612944      -16.4255317719
 C         2.3054300241        1.2223218566      -14.2371983745
 C         0.8981781459        1.4527545304      -13.6357526075
 O         0.2433137249        2.4208630668      -13.9403296500
 C         0.3985838906        0.6027687988      -12.3451066709
 C        -0.2243925415       -0.8594135523      -12.6927469856
 C        -1.2548369708       -1.3656502974      -11.6246710588
 O        -1.7200904799       -0.5469575825      -10.8407651861
 C        -1.7319859564       -2.8753780350      -11.4382815333
 C        -3.1040553275       -2.8531242933      -10.7739637085
 O        -3.1879616832       -3.2316477627       -9.6058020783
 C        -4.3736982739       -2.4684278504      -11.5021852295
 C        -5.5901442698       -2.2832047505      -10.6326982315
 C        -5.7739055589       -3.3849857995       -9.4772443792
 O        -6.1520615925       -4.5038176740       -9.6838443297
 C        -5.4853033603       -2.9252788548       -8.0005636582
 C        -4.3344249142       -3.8652407948       -7.4021521998
 O        -4.5067621253       -5.0342874624       -7.4608223832
 C        -3.1434391915       -3.2119133238       -6.6333003161
 C        -2.8666747635       -4.0384996597       -5.4049209431
 C        -3.7927704156       -3.7961560528       -4.1389655226
 O        -4.5221824417       -2.8611365723       -4.0784580738
 C        -3.7769511652       -4.8488437470       -3.0249514909
 C        -4.7363552420       -6.0266299220       -3.3757948208
 O        -4.2867852411       -7.0442550740       -3.9000182070
 C        -6.1613789055       -5.8383772237       -3.0466480231
 C        -7.1356422128       -6.9911274708       -3.3724536248
 C        -7.2263751279       -7.2872904892       -4.8461747498
 O        -7.1454223489       -6.3836451799       -5.6925695513
 C        -7.2816873161       -8.7993822959       -5.1954019921
 C        -7.1736160682       -8.8437726122       -6.7557648075
 O        -6.0959564544       -8.4691379108       -7.2036308314
 C        -8.4287072846       -9.2480399376       -7.6283047044
 C        -8.0806211881       -9.2319231972       -9.1216935164
 C        -8.3751062182       -7.7938267413       -9.7331412196
 O        -7.5456225822       -7.2542507610      -10.4122197003
 C        -9.8263063161       -7.0971895084       -9.5817300750
 C        -9.9553870692       -6.3152942390       -8.2006346118
 O        -9.0280653054       -5.6781220292       -7.7409969976
 C       -11.3285268658       -6.2887143549       -7.5341512688
 C       -11.2304626540       -5.9403833081       -6.0121442021
 C       -12.5962634869       -5.5724729037       -5.4666668755
 O       -13.1485626904       -4.5176512208       -5.7316554186
 C       -13.2040917558       -6.5711869955       -4.3956371785
 C       -12.2172580510       -6.3184087953       -3.1617310037
 O       -11.0616126595       -6.5797520311       -3.2503688110
 C       -12.8682415597       -5.6157024789       -2.0195709828
 C       -11.8062767146       -5.1706824497       -0.9658260392
 C       -11.5293185160       -6.3957493547       -0.0445505328
 O       -12.2358910603       -7.3775282193       -0.1161937036
 C       -10.8165306847       -6.1216357077        1.2912633583
 C        -9.5578000643       -5.2694320400        1.2525631953
 O        -8.6801712845       -5.4522279919        0.4218804543
 C        -9.2231798180       -4.2218225899        2.4452921853
 C       -11.9750457631       -5.3991213751        2.0557014273
 C       -10.3666251072       -7.4966468794        1.9006122978
 C       -14.7090424919       -6.2217698405       -4.2792776815
 C       -12.9690562935       -8.0833189275       -4.8653515650
 C        -9.8687063018       -5.8656579414      -10.5580976351
 C       -10.9584828345       -8.1150589127       -9.9426414102
 C        -5.9978060683       -9.5402989173       -4.6545083674
 C        -8.5878061213       -9.5338384296       -4.6688736090
 C        -2.4131894698       -5.5703671017       -2.8388157378
 C        -4.0713165413       -4.0586056931       -1.7292376529
 C        -5.1392432736       -1.4773469854       -7.8048499418
 C        -6.7905992296       -3.0940823574       -7.1012188932
 C        -1.6518355738       -3.6126613256      -12.8097446673
 C        -0.7186305343       -3.6194305110      -10.5770562745
 C         3.1932197783        0.1409561744      -13.5939315696
 C         2.9860719391        2.6154871370      -14.1788822932
 C         6.0366062215        1.2434388279      -19.5873155433
 C         6.2834708768       -1.0733252153      -18.5242857562
 C         8.7247644297        6.2865748847      -15.5175817163
 C         7.0365434256        6.5605904868      -13.6123504553
 C         1.8885766624        5.1413894175      -18.9203633334
 C         1.9073407063        7.7289294986      -18.6407705811
 C        -3.2972858850        7.5271307868      -13.6652482244
 C        -1.0993206309        7.9545854504      -12.5536718977
 H        -3.3633883561        5.1152415773      -14.7039009991
 H        -2.7702094921        4.5699759764      -13.2406077545
 H        -2.1703971583        3.9879348205      -14.8667672953
 H        -2.4859843422        8.2869982841      -16.8783440663
 H        -2.0432479445        6.6113062482      -16.3101231486
 H         0.0654830303        8.5548296097      -17.2303607661
 H        -0.8755907852        7.8732408382      -18.4998488351
 H         2.9878932786        7.8811183231      -15.8643015524
 H         4.0154624652        7.8339471121      -17.1709542391
 H         4.5292409442        5.7116446020      -15.0299069517
 H         4.9665633051        7.3434307266      -14.5471795430
 H         8.1613607721        3.1238383322      -16.3691612671
 H         6.9271028965        4.1860707276      -17.2273832159
 H         5.2561942658        2.8908805730      -16.8471809407
 H         5.7876389103        2.1245030803      -15.3815701009
 H         4.4491928888       -1.0240150740      -16.2561477152
 H         3.5970096903       -1.6149250721      -17.7108563018
 H         2.0968323326       -1.1186267836      -15.6664291286
 H         1.4485887043       -0.5514043461      -17.1151160248
 H        -0.2069620156        1.2829202797      -11.7524007505
 H         1.2218657847        0.2525803579      -11.6463179317
 H         0.5669471451       -1.4974392017      -13.1027824816
 H        -0.8207784156       -0.6145844737      -13.5504877091
 H        -4.5048735121       -3.2710627269      -12.2310534871
 H        -4.3061521539       -1.6414221771      -12.2207405391
 H        -6.5325622448       -2.1152492200      -11.1650543818
 H        -5.5192814531       -1.3243070810      -10.1174789598
 H        -3.4125503755       -2.2755474863       -6.2606962767
 H        -2.3217834643       -3.3289044042       -7.3111000819
 H        -1.9542842744       -3.6748823462       -5.0257716478
 H        -2.7653494215       -5.1219919601       -5.6525553900
 H        -6.5737139496       -5.0784812019       -3.6768103589
 H        -6.3522463753       -5.4397987683       -2.0583396336
 H        -8.2130557472       -6.8393268830       -3.0259804539
 H        -6.7694734969       -7.8463574182       -2.9437799074
 H        -9.2221210070       -8.5309131007       -7.3282458640
 H        -8.7807040275      -10.2718923257       -7.3550223061
 H        -8.5486493444      -10.0891665157       -9.6394595693
 H        -6.9857194182       -9.4239539610       -9.3296026087
 H       -11.9464329813       -7.1274759087       -7.7824324627
 H       -11.8297187014       -5.4329338359       -7.9508607260
 H       -10.6820592135       -4.9739412670       -5.9491848296
 H       -10.6936309425       -6.5898866923       -5.3305906162
 H       -13.6129016016       -6.3540399404       -1.5995476582
 H       -13.3831796804       -4.8098126207       -2.4252802335
 H       -12.2299759482       -4.3942324018       -0.2749538104
 H       -10.8871586086       -4.8355062272       -1.4758525359
 H        -9.5679481743       -4.4446762674        3.4887152779
 H        -9.6586419540       -3.2013756084        2.1844991913
 H        -8.1802240389       -4.0865541477        2.3920377069
 H       -12.7630336195       -6.0520975628        1.8800257792
 H       -12.1875938915       -4.4556654772        1.7456822012
 H       -11.9347859461       -5.4023537901        3.1423341563
 H        -9.6008043647       -7.2808104718        2.6588221954
 H        -9.9294318783       -8.0822807488        1.1015962882
 H       -11.1077784419       -8.0563901389        2.4360075290
 H       -15.2774013679       -6.7703088458       -3.6094153895
 H       -15.1498672415       -6.4230063317       -5.2811873455
 H       -14.7872676916       -5.2232226202       -3.8963989574
 H       -11.9075701785       -8.3763651266       -4.8200592243
 H       -13.2658366760       -8.2514464790       -5.9024050773
 H       -13.6524115739       -8.7330934834       -4.2638179859
 H       -10.9187592515       -5.6631068163      -10.7377396755
 H        -9.3689270170       -6.1269280225      -11.4894832887
 H        -9.4234423259       -5.0468670286       -9.9762019681
 H       -10.4203827822       -8.7345064158      -10.7558699038
 H       -11.8375823106       -7.5560465579      -10.2806063021
 H       -10.9766984729       -8.7679736870       -9.0445569821
 H        -5.2028330876       -8.8976836669       -4.5694155908
 H        -5.7228329613      -10.1163523960       -5.5195948868
 H        -6.0633336325      -10.0735036430       -3.7358398276
 H        -8.5836202785       -9.6939334292       -3.5331670259
 H        -8.7916523810      -10.5264649660       -5.0354413885
 H        -9.4151206649       -8.8715404535       -4.8815236233
 H        -1.5412402044       -4.8682906077       -2.7934162770
 H        -2.2380840716       -6.2799759646       -3.6048924277
 H        -2.4005248220       -6.1804260917       -1.9273645977
 H        -3.8525888360       -2.9670887724       -1.9246513193
 H        -3.4419614840       -4.4027086991       -0.9419801867
 H        -5.1372816552       -4.0978542737       -1.4046102681
 H        -4.8127278950       -1.3619923017       -6.7637628395
 H        -6.0547134523       -0.8486876734       -7.9565103959
 H        -4.2661948719       -1.1434159749       -8.3895141701
 H        -6.6764653013       -2.6950900182       -6.1087415760
 H        -7.2443263109       -4.0487932296       -7.1730732770
 H        -7.5245127449       -2.4728879666       -7.5693594697
 H        -1.8016366529       -4.6350232758      -12.4914256998
 H        -0.6759747475       -3.6425097898      -13.3175599153
 H        -2.3295965885       -3.3277577644      -13.5688581087
 H        -1.1564119536       -4.6327300479      -10.3853156829
 H        -0.7531107507       -3.2346081210       -9.5577405894
 H         0.2340956714       -3.6556331192      -11.0771757857
 H         2.8518556465       -0.8803636711      -13.4987583359
 H         3.4840380843        0.3952857128      -12.5550285886
 H         4.1670945269        0.0444807963      -14.1240795807
 H         3.8667243706        2.5637096189      -13.4865106839
 H         2.3081755594        3.4382790554      -13.8625796140
 H         3.3728715536        2.8205564396      -15.1429297963
 H         5.7113127101        2.2764848475      -19.5067778742
 H         5.4541020479        0.7149462755      -20.3505659635
 H         7.1434457559        1.2292200641      -19.9161191572
 H         7.2687223182       -0.9712014977      -18.9844662292
 H         5.6104855109       -1.5247302276      -19.3333381422
 H         6.2929847384       -1.6210524974      -17.6660221582
 H         9.3373764921        5.5319559645      -15.1529491812
 H         9.1042567435        7.1941781523      -15.1154509858
 H         8.8362821761        6.2103593435      -16.6184033108
 H         6.0845639809        6.1674181459      -13.1792278311
 H         6.9214581365        7.5600527350      -13.7405377270
 H         7.7962198162        6.4036225113      -12.9412342267
 H         1.7793488927        4.2132951137      -18.4096996635
 H         2.8347369366        5.1183978578      -19.5683966931
 H         1.0547832263        5.1555266965      -19.6048086564
 H         1.6230216843        8.5994952490      -17.9642042855
 H         1.3174827082        7.8790327305      -19.5286305193
 H         2.9801373638        7.8240653755      -18.7957631747
 H        -3.7804884821        6.8085902060      -12.9726701456
 H        -3.8394157927        7.5532759958      -14.6195631698
 H        -3.5152475129        8.4295543028      -13.0856465677
 H         0.0063259464        7.8710443525      -12.7377018804
 H        -1.5322007853        7.6280277232      -11.6705165928
 H        -1.3281130231        9.0010951537      -12.4233189131
 Na        0.7060572980        3.8408448341      -15.6652652094
 Na       -6.5529290684       -6.2795885370       -8.0751397650
