232

 C        -2.4184531214        4.8711785814      -14.2050335990
 C        -1.3257725181        5.8850270989      -14.0527542184
 O        -0.1636304004        5.5392476609      -14.2776454351
 C        -1.7317756867        7.3999692779      -13.8028661024
 C        -1.3300806871        8.2305813683      -15.1295156487
 O        -0.5382489506        9.1610353635      -15.0146604138
 C        -1.9193307038        7.7494269121      -16.4857789590
 C        -0.7211837075        7.6569972380      -17.4440033321
 C         0.1638359288        6.4213920096      -17.4878176259
 O        -0.3257290923        5.3332415132      -17.1783030256
 C         1.6330960571        6.4231193056      -17.9841524420
 C         2.7387933578        6.0970820906      -16.8486888149
 O         2.8544530724        4.9647353639      -16.3420202312
 C         3.7056472728        7.2853048734      -16.3643178291
 C         4.7883485353        6.7192918151      -15.3768553699
 C         6.1585355139        6.5379471349      -16.0477771799
 O         6.4134937159        6.6115475249      -17.2121248569
 C         7.2371998622        5.9057300315      -15.0483792874
 C         6.9659289517        4.3559833724      -15.0908397521
 O         6.5598839531        3.8441153587      -14.0895602491
 C         7.2223152499        3.4528340286      -16.3413221772
 C         6.1357733391        2.3893606633      -16.4031174030
 C         6.6143629439        1.0326984485      -17.0028486765
 O         7.5123899198        0.4096848454      -16.5971728243
 C         5.7447788474        0.4542483980      -18.2148656626
 C         4.2755006890        0.4520914655      -17.9596344081
 O         3.5253965632        1.3590771823      -18.2150229453
 C         3.7016098666       -0.7255248795      -17.0015029051
 C         2.2769724931       -0.4650828595      -16.5022490042
 C         2.0483797077        0.8281931370      -15.7606168880
 O         1.6478399453        1.7683060580      -16.4452530541
 C         2.2756021076        1.2401733706      -14.1802813138
 C         0.9097023885        1.4189861672      -13.4152514583
 O         0.1168061488        2.2861286694      -13.7922689498
 C         0.4544329347        0.4879900107      -12.3060848430
 C        -0.1735504015       -0.8535468959      -12.6944942208
 C        -1.2496150586       -1.2744115749      -11.6376377461
 O        -1.7590782227       -0.5471279966      -10.8393734226
 C        -1.6314283276       -2.8969251424      -11.5573806683
 C        -3.0974533672       -2.8558202293      -10.7758619135
 O        -3.2257627859       -3.3040877016       -9.6096284461
 C        -4.3999137510       -2.4588629387      -11.5349523658
 C        -5.7012623426       -2.3752121767      -10.6848443882
 C        -5.7571971530       -3.3451170396       -9.4888156295
 O        -6.0399697870       -4.4766747065       -9.8637563083
 C        -5.5612036408       -2.8620316190       -7.9496588472
 C        -4.3827547965       -3.8728046368       -7.2702795928
 O        -4.5111335975       -5.0966734205       -7.5821346005
 C        -3.0907055928       -3.4040322962       -6.6187601715
 C        -2.7481453833       -4.1942140635       -5.3680654224
 C        -3.7438478544       -3.8748711828       -4.1129724002
 O        -4.4249488659       -2.8153911141       -4.1428695078
 C        -3.7558540318       -4.8702491611       -2.9335819638
 C        -4.8201767987       -6.0182760217       -3.3301661340
 O        -4.4371344870       -7.0405041941       -3.8720468270
 C        -6.2697012319       -5.7072744451       -2.9799255230
 C        -7.1880090782       -6.8949075991       -3.3373400086
 C        -7.1956058440       -7.2267449731       -4.8305205185
 O        -7.2755310987       -6.3603815961       -5.6849565560
 C        -7.2178860315       -8.8383673557       -5.2319556299
 C        -7.1869908599       -8.9195880472       -6.7488361302
 O        -6.1590398724       -8.5316920597       -7.2700962623
 C        -8.3662155298       -9.2649763308       -7.6127007440
 C        -8.0459706364       -9.1204101098       -9.1016729408
 C        -8.3679223983       -7.8111053384       -9.7589021258
 O        -7.5624260896       -7.2606298731      -10.4939872982
 C        -9.7247222713       -7.0981779179       -9.5401239792
 C        -9.8311652709       -6.3847903544       -8.1305099841
 O        -8.9176676751       -5.7441227739       -7.6651853865
 C       -11.2534524172       -6.3124133391       -7.5868359420
 C       -11.2381378418       -5.9592950443       -6.0641039562
 C       -12.6304293559       -5.6028678156       -5.4993396846
 O       -13.1022886059       -4.5270526846       -5.7402119254
 C       -13.2938209398       -6.5256160403       -4.4578193485
 C       -12.4253432504       -6.2000053124       -3.2132296655
 O       -11.2650024673       -6.4098412725       -3.1584077119
 C       -13.0200307145       -5.4421625698       -1.9211118957
 C       -11.9053322342       -5.1249887877       -0.9199978558
 C       -11.6567047585       -6.3372188786       -0.0538219521
 O       -12.1883125207       -7.4089126425       -0.2343948166
 C       -10.7751401202       -6.0818462729        1.3019332920
 C        -9.3397808401       -5.2459695320        1.2532640946
 O        -8.4891231960       -5.4997761820        0.4676517089
 C        -9.1763924387       -4.3340726914        2.4612218645
 C       -11.8359642458       -5.2917142793        2.1970764088
 C       -10.4418778720       -7.3701980835        2.0089875664
 C       -14.7887733610       -6.2702683818       -4.1839104449
 C       -13.0856411797       -7.9770302285       -4.9345331011
 C        -9.7512531922       -5.9749909109      -10.6898943262
 C       -10.8616973982       -8.1366939425       -9.8744411016
 C        -6.0110015117       -9.6369198001       -4.5732641293
 C        -8.4584449245       -9.4757341754       -4.6696731701
 C        -2.3025481068       -5.4962095100       -2.7959740675
 C        -4.0772149108       -4.0972555384       -1.6828652807
 C        -5.1955778789       -1.3208255773       -7.8340973709
 C        -6.8412349550       -3.1964932467       -7.1527155054
 C        -1.8068727644       -3.5813880922      -12.9081812443
 C        -0.6513433173       -3.5926666172      -10.6551010417
 C         3.1479724307        0.1476948167      -13.5734883374
 C         2.9863210305        2.6597065392      -14.0876935055
 C         6.1565734600        1.1611387464      -19.5190223333
 C         6.3393923860       -1.0382498436      -18.2964031740
 C         8.6346021615        6.2100009076      -15.6012231979
 C         7.0958095079        6.5088777813      -13.6196842196
 C         1.7914149134        5.2918426568      -18.9956236332
 C         1.9584851785        7.6655127437      -18.8678371916
 C        -3.2364498459        7.4891104701      -13.5452302920
 C        -1.0654540812        7.9546183568      -12.5263322547
 H        -3.3304490136        5.0012172587      -14.8095340192
 H        -2.7659726429        4.6342732219      -13.1932813547
 H        -1.9810919749        4.0355581170      -14.7375581374
 H        -2.4975097925        8.5525938786      -16.9376536742
 H        -2.4329605465        6.8159889196      -16.4162621426
 H        -0.1766803524        8.6471896626      -17.3951827297
 H        -1.0654611392        7.6980492120      -18.5356554614
 H         3.2252848744        8.1660952301      -15.9464320773
 H         4.2916659677        7.7907136677      -17.1403367441
 H         4.5470098695        5.7560134519      -14.8921496091
 H         5.1202252698        7.4265444875      -14.5926360872
 H         8.0739267239        2.8821485231      -16.1919619584
 H         7.2359807768        4.1024537085      -17.2524160836
 H         5.2073391912        2.8466056178      -16.8448435811
 H         5.8262530752        2.1511338150      -15.3628307517
 H         4.3953021435       -0.9536462371      -16.1571123567
 H         3.6605577117       -1.5966695028      -17.6672242236
 H         1.8922135066       -1.2925843263      -15.8306579510
 H         1.5069706984       -0.4642518460      -17.3317665651
 H        -0.2532598355        1.0676440606      -11.6513730406
 H         1.2437745122        0.1521230043      -11.5429534758
 H         0.5538984624       -1.5738066403      -12.8284649828
 H        -0.6388925668       -0.6250946411      -13.7052256587
 H        -4.4729318850       -3.1758097682      -12.3207927769
 H        -4.3471907863       -1.6011758117      -12.1794526271
 H        -6.6736903622       -2.6544975432      -11.2949166656
 H        -6.0054392764       -1.3161937119      -10.4339599870
 H        -3.2101192030       -2.3684753757       -6.3346453187
 H        -2.4067772834       -3.7567455565       -7.4061797254
 H        -1.6890379402       -3.8574975442       -5.0615159791
 H        -2.7767511883       -5.2646914508       -5.5775125348
 H        -6.7847355497       -4.8497394526       -3.2645540846
 H        -6.2995673858       -5.6486542380       -1.9136651006
 H        -8.1510794770       -6.7157969271       -3.1452243646
 H        -6.8265953310       -7.7792337644       -2.7865756631
 H        -9.2873626619       -8.6099842347       -7.2824901519
 H        -8.6196656789      -10.3323374193       -7.3796051168
 H        -8.5740705362       -9.9530888705       -9.6289320521
 H        -6.9584559855       -9.3393624198       -9.4186755310
 H       -11.7331705690       -7.2794857496       -7.6426154486
 H       -11.8076930770       -5.6678388021       -8.3013436327
 H       -10.5049231673       -5.2463324307       -5.7063301155
 H       -10.9376295968       -6.9311208976       -5.5907905652
 H       -13.7290962438       -6.1474421449       -1.5451854650
 H       -13.4833509415       -4.5262770904       -2.1772920307
 H       -11.9940852828       -4.1728591124       -0.2975025801
 H       -11.0200412511       -5.1178350722       -1.6111055623
 H        -9.8350791950       -4.5811978823        3.2588162153
 H        -9.3469119317       -3.3392567277        2.2675277864
 H        -8.1175942884       -4.4606277758        2.7459256580
 H       -12.8192896507       -5.7421031590        2.1183680212
 H       -11.8168311758       -4.2329493008        2.0075996375
 H       -11.6776011365       -5.3972820203        3.2268714772
 H        -9.6371531352       -7.2068744830        2.6536776404
 H       -10.1722758885       -8.1635163405        1.2896573617
 H       -11.2239012892       -7.6956329361        2.7074734252
 H       -15.3323644497       -7.0309968602       -3.5482000920
 H       -15.2810111366       -6.3446001005       -5.1498659380
 H       -14.8830222453       -5.3359656991       -3.6587053707
 H       -12.0372188681       -8.4214549698       -4.9153210114
 H       -13.5088766889       -8.1869463758       -5.8943169584
 H       -13.7845670009       -8.4869140283       -4.2540864517
 H       -10.7384531551       -5.5905482080      -10.6821823883
 H        -9.6572081380       -6.5495714693      -11.5480382718
 H        -9.0131082113       -5.2209443873      -10.5389979392
 H       -10.3709346675       -8.8694486911      -10.5363013757
 H       -11.6741511466       -7.5519177268      -10.3673699604
 H       -11.0653020777       -8.6012612997       -8.9514837404
 H        -5.1220673778       -8.9612724872       -4.4783829950
 H        -5.7023230064      -10.3589195260       -5.3140039829
 H        -6.1750098214      -10.0066769113       -3.5665963383
 H        -8.4641758874       -9.3384397514       -3.6199046704
 H        -8.4859369932      -10.5315478180       -4.7294334539
 H        -9.4533546346       -8.9988400060       -5.0364671106
 H        -1.5192362494       -4.7303752567       -2.8493941077
 H        -2.0690700193       -6.2617383687       -3.5423869445
 H        -2.2110277312       -6.0323691571       -1.8614829782
 H        -3.8402662704       -3.0512190056       -1.8556777327
 H        -3.5887881191       -4.4811743631       -0.8011555640
 H        -5.1821512445       -4.0954539959       -1.5726129389
 H        -5.1041992937       -1.0048601332       -6.8103735187
 H        -5.9084672125       -0.7048483232       -8.3721372106
 H        -4.2073978364       -1.2260202320       -8.2451289421
 H        -6.6691927137       -2.7956362673       -6.1571716884
 H        -7.0295719685       -4.2376380919       -7.1578466970
 H        -7.7813906278       -2.7047595194       -7.4654761320
 H        -2.2818346041       -4.5025668726      -12.6154881909
 H        -0.9677706924       -3.8660154931      -13.4587224294
 H        -2.4191855764       -3.0327767460      -13.5576558353
 H        -1.1350322151       -4.4735274358      -10.2175829775
 H        -0.5134293003       -2.9700755691       -9.7402232382
 H         0.2710709637       -3.8398133244      -11.2207902970
 H         2.7052434495       -0.8919085159      -13.5583459058
 H         3.3727900578        0.3036320621      -12.6003814012
 H         4.0706727879       -0.0171571817      -14.0837540694
 H         3.8348076147        2.5485011102      -13.4738754634
 H         2.3360104007        3.4257032770      -13.5722819917
 H         3.2759364611        3.0192577091      -15.0922431272
 H         6.0161405057        2.2010275441      -19.5381337733
 H         5.6185310156        0.6547360436      -20.3454142906
 H         7.2370947559        0.9105321221      -19.6913756243
 H         7.4455659767       -0.9573566934      -18.3975802019
 H         5.9387605167       -1.4563827469      -19.2099612531
 H         6.0483847509       -1.6450528197      -17.4340912641
 H         9.3642025852        5.5189600179      -15.2310658187
 H         8.9658963116        7.2250613968      -15.3859081988
 H         8.6001986324        6.0782591486      -16.6443981307
 H         6.0769529842        6.4536518391      -13.2419553868
 H         7.2966337447        7.6118965809      -13.7508050674
 H         7.8461895462        6.1436068006      -12.9387747704
 H         1.4118695773        4.3476130480      -18.6510393161
 H         2.7325158247        5.1903657437      -19.3324051785
 H         1.1470870743        5.5294965682      -19.8893540022
 H         1.8306535722        8.6289982852      -18.3361186851
 H         1.3425323707        7.8194661191      -19.7849972059
 H         3.0662627754        7.4792374069      -19.0438790148
 H        -3.4284621677        7.1822810456      -12.5344248553
 H        -3.8557016987        6.8408600856      -14.2880994361
 H        -3.7535613950        8.4967230567      -13.5425573387
 H        -0.0055159045        7.7245803205      -12.5601968093
 H        -1.5797566708        7.6711435841      -11.6253198425
 H        -1.1817726271        8.9865684204      -12.4434200007
 Na        0.7428540840        3.7873119479      -15.7166746291
 Na       -6.6371930303       -6.2310747112       -8.1420335953
