232

 C        -2.2846374148        4.5808585588      -14.0823826814
 C        -1.3037602340        5.8041663545      -14.2021642003
 O        -0.1144585300        5.5506167594      -14.3497893338
 C        -1.6443234503        7.2883938270      -13.8499448056
 C        -1.1858134141        8.1226761212      -15.1811670520
 O        -0.3779450853        9.0396398639      -15.0530550736
 C        -1.8003240957        7.7640978950      -16.5487841127
 C        -0.7007697483        7.8783136955      -17.5570447787
 C         0.1438189298        6.6086266681      -17.5023671842
 O        -0.2847289802        5.6435397779      -16.8723223371
 C         1.5529010873        6.5841667839      -18.1527969038
 C         2.5044855616        6.3856993758      -16.8140034202
 O         2.2691903649        5.4385022802      -16.0493379315
 C         3.5991361992        7.3762639383      -16.5892867391
 C         4.6898652155        6.9408123415      -15.4784880436
 C         6.0051776640        6.4425814932      -16.1130662302
 O         6.2806481419        6.6178888549      -17.2535854522
 C         7.1724355675        5.8656485813      -15.2135083318
 C         6.9017252268        4.3299033766      -15.0784419917
 O         6.5225007905        3.7866475255      -14.0840336761
 C         7.2727212192        3.3288611193      -16.2610648547
 C         6.2029930092        2.3475538564      -16.6424101567
 C         6.8377363661        1.0576722534      -17.0547735369
 O         7.8862749611        0.7344889963      -16.6686335424
 C         5.8468322185        0.2013471115      -18.0257828120
 C         4.4500697459        0.4690287094      -17.5844212072
 O         3.7562935310        1.3763465173      -18.0330734084
 C         3.7719918439       -0.6251323552      -16.6695087268
 C         2.2501553814       -0.4456105266      -16.3886116781
 C         2.0057413689        0.8331875114      -15.6366364269
 O         1.3359049784        1.7559972566      -16.1211910344
 C         2.3463879453        1.0482192231      -14.1570208356
 C         0.8967598891        1.1554906751      -13.5212460761
 O         0.1008959432        1.9685282128      -13.8981994145
 C         0.4793345597        0.3842809026      -12.2112359100
 C        -0.2137846928       -0.9574511095      -12.6472719176
 C        -1.3793177746       -1.3059892142      -11.6900807797
 O        -1.8757638849       -0.4018809797      -11.0774753360
 C        -1.7720010855       -2.8028024624      -11.7381063139
 C        -3.1408174443       -2.8963969442      -10.8785833922
 O        -3.0954096354       -3.3999716486       -9.7112858868
 C        -4.5057343384       -2.5390467656      -11.5999979350
 C        -5.5856605837       -2.2703904510      -10.5817365287
 C        -5.6770848862       -3.3971323568       -9.5440875712
 O        -6.0125135332       -4.4849772307      -10.0155292400
 C        -5.5085531268       -3.0597980466       -7.9565713153
 C        -4.5169267725       -4.0225855890       -7.2569294025
 O        -4.7909346913       -5.2312156974       -7.2850797927
 C        -3.2098096072       -3.6130024926       -6.5827861877
 C        -3.0626419348       -4.5544387659       -5.3711358389
 C        -3.7020701850       -3.9986240510       -4.1201614416
 O        -4.2918427021       -2.8834136331       -4.2736625816
 C        -3.7182559052       -4.7861189739       -2.8947782745
 C        -4.9134508885       -5.8738724225       -3.2790546809
 O        -4.5791844092       -6.9097192243       -3.8629052876
 C        -6.3016052664       -5.6848459291       -2.9045699845
 C        -7.1737782269       -6.8552498601       -3.3129714927
 C        -7.0391109292       -7.1628647418       -4.7839891491
 O        -6.9819223437       -6.1705706660       -5.5342568264
 C        -7.2232580737       -8.7085222129       -5.2160171302
 C        -7.0494268300       -8.7735257515       -6.7635882505
 O        -5.9903665529       -8.2865534822       -7.1792314934
 C        -8.2569902020       -9.3894842915       -7.6357562300
 C        -8.0748664182       -9.4107796660       -9.1409230229
 C        -8.2739217371       -7.9896747246       -9.6835427900
 O        -7.3368052749       -7.3360177065      -10.0613988609
 C        -9.7278930346       -7.3003437130       -9.6727267157
 C        -9.8287191331       -6.5338374976       -8.2349809261
 O        -8.8784815792       -6.0698952312       -7.6619866376
 C       -11.2459882727       -6.2294157991       -7.6696964897
 C       -11.2606960885       -5.9691695590       -6.1212714564
 C       -12.7467818159       -5.4815036764       -5.6181423235
 O       -13.3551121691       -4.5217168910       -6.0330419543
 C       -13.3700027454       -6.2889012250       -4.3815320600
 C       -12.4408797644       -5.9604511197       -3.0866799160
 O       -11.3937402204       -6.4305700822       -3.1430048603
 C       -13.0347738787       -5.2609305777       -1.8518593965
 C       -12.1637832479       -4.8405662524       -0.5800848165
 C       -11.5272754679       -6.0745912091        0.0880604604
 O       -11.5176107988       -7.1816598542       -0.3751503533
 C       -10.8527792035       -5.8201183529        1.5899009047
 C        -9.3695460385       -5.4885421767        1.2917056343
 O        -8.8309981525       -5.7757098535        0.2747307031
 C        -8.5062119016       -4.6384110342        2.2878770421
 C       -11.6805193908       -4.8396763384        2.4630061004
 C       -10.8280622513       -7.2869742823        2.1855528482
 C       -14.8560496433       -5.8217696344       -4.4053483305
 C       -13.3354315891       -7.8178838076       -4.5238278059
 C        -9.8200386958       -6.1606139070      -10.7245646099
 C       -10.9136166071       -8.3600816249      -10.0485383459
 C        -5.9255441512       -9.4761190676       -4.6345465025
 C        -8.5163929841       -9.3293999890       -4.7519630817
 C        -2.5477755233       -5.7097564777       -2.5791299644
 C        -4.0546195604       -3.8514358269       -1.7535626535
 C        -4.9701022135       -1.6003192185       -7.7631708876
 C        -6.9430021075       -3.1416265894       -7.3600495187
 C        -1.9940123156       -3.2504091479      -13.1512363361
 C        -0.6894572292       -3.6828725346      -11.0296664351
 C         3.1099080941       -0.1477465592      -13.6157171866
 C         3.0959744693        2.4624972282      -13.9098831028
 C         6.1146535460        0.8964767354      -19.4103835629
 C         6.2713436447       -1.2779361675      -18.1775788303
 C         8.4093932712        6.0632951152      -16.1285676528
 C         7.3768448143        6.4808006667      -13.8172368006
 C         1.6963245687        5.2897524824      -18.9740788629
 C         1.8916695251        7.8709348998      -19.0750322057
 C        -3.0751497309        7.5502772195      -13.5026416511
 C        -0.7917292168        7.6815584491      -12.6204962528
 H        -2.4697709156        3.9817597694      -14.9476005208
 H        -3.2335589426        4.8679633459      -13.6391469322
 H        -1.8394309047        3.7907112840      -13.5018341721
 H        -2.6751608083        8.4047454748      -16.7958174637
 H        -1.9438323715        6.6808493609      -16.6483433892
 H        -0.0523985495        8.7692377730      -17.4396694071
 H        -1.0125259711        7.9871877811      -18.5523782891
 H         3.3544828664        8.4132753548      -16.3572318664
 H         4.0994068185        7.5635381772      -17.5707305230
 H         4.2676657662        6.2929565776      -14.7123850080
 H         5.0237063723        7.8237112339      -14.9885620956
 H         8.1749797414        2.7673265441      -15.9299764613
 H         7.4689463797        3.9719555811      -17.1716126380
 H         5.5579019322        2.9041849434      -17.3182803389
 H         5.5361783730        2.2001864323      -15.8051018407
 H         4.4037589408       -0.8449950244      -15.8078314163
 H         3.7111269755       -1.4747959409      -17.3544342419
 H         1.9074623971       -1.1557030436      -15.7421272738
 H         1.6687144571       -0.4746090434      -17.3436057126
 H        -0.0358227760        0.7849076597      -11.4230760645
 H         1.3426769218       -0.0292667755      -11.6722017587
 H         0.4680976543       -1.7539166898      -12.5486069536
 H        -0.5915477045       -0.8190007975      -13.6759631320
 H        -4.7866481602       -3.3256359992      -12.3205729195
 H        -4.4593368942       -1.7323719287      -12.3814464932
 H        -6.5786898342       -2.1105369204      -10.9852961215
 H        -5.3167143563       -1.4109499868      -10.0681892159
 H        -3.2418313353       -2.6295075398       -6.2520916940
 H        -2.4655002670       -3.9783892545       -7.2638877390
 H        -2.0339990001       -4.6489641398       -5.1879134913
 H        -3.4417284646       -5.5513336677       -5.6671281290
 H        -6.6695753116       -4.7549440622       -3.3605474672
 H        -6.5869646423       -5.5059711998       -1.8318502029
 H        -8.2163667081       -6.6133737495       -3.1270465310
 H        -6.8243324582       -7.6933082627       -2.6754601372
 H        -9.1073952980       -8.8041244961       -7.4109060279
 H        -8.3614975944      -10.3321717511       -7.1832471521
 H        -8.7060196227      -10.0604550065       -9.6707242747
 H        -7.0539239074       -9.6931502288       -9.4265751216
 H       -11.7827648368       -7.1329287666       -7.9274441398
 H       -11.7436596966       -5.4579011838       -8.2312834640
 H       -10.5441375024       -5.1592465774       -5.9444498405
 H       -10.8646845311       -6.8018306464       -5.5510484250
 H       -13.8117932940       -6.0215117330       -1.4377921036
 H       -13.5678456809       -4.4149170948       -2.2382465118
 H       -12.8123248183       -4.3216650953        0.1493608154
 H       -11.3489339848       -4.1975528192       -0.8342944859
 H        -8.6024127363       -5.0331856976        3.3436651807
 H        -8.9329461427       -3.6293397377        2.4686383145
 H        -7.4399275782       -4.6330998293        1.9213271318
 H       -12.6755206756       -5.3032931065        2.4636952403
 H       -11.6835582271       -3.8519831014        2.0352474445
 H       -11.4723807599       -4.6669194035        3.5477862456
 H       -10.6501766547       -7.1984890799        3.2543059715
 H        -9.9274520495       -7.7927841765        1.7788025150
 H       -11.7683098380       -7.8559870450        2.0538493017
 H       -15.4529136493       -5.9611826641       -3.5237933581
 H       -15.4011822960       -6.3179243187       -5.2580889202
 H       -14.7969915859       -4.7705031920       -4.6385470293
 H       -12.2892103825       -8.2585033257       -4.4506731842
 H       -13.8294707241       -8.0742534510       -5.4400409656
 H       -13.9034725559       -8.3334461795       -3.7067188716
 H       -10.2630467625       -5.2703004485      -10.1907652537
 H       -10.5293851771       -6.5039893873      -11.5106226211
 H        -8.7839625008       -5.9403142794      -11.1768371465
 H       -10.6479247208       -8.4870178341      -11.1358349079
 H       -11.8621001149       -7.7797316511      -10.0081489360
 H       -10.8568808018       -9.1942094360       -9.3803424437
 H        -5.1799535009       -9.6948714801       -5.3606562955
 H        -6.3323388539      -10.4306626986       -4.2897229872
 H        -5.4338427148       -8.9592857926       -3.8430015870
 H        -8.5110892001       -9.4438757816       -3.6601973989
 H        -8.6508399686      -10.3180247960       -5.1226251814
 H        -9.4504018685       -8.6921394445       -4.8323699965
 H        -1.5881996975       -5.1696490060       -2.4387698770
 H        -2.3672448230       -6.3698264783       -3.3955612782
 H        -2.7984129114       -6.3201320470       -1.7197668589
 H        -3.1649990833       -3.8688837790       -1.0954964297
 H        -4.9152188990       -4.1998780615       -1.2741742067
 H        -4.1421615005       -2.7924342246       -2.1393353125
 H        -4.5511650375       -1.6643201173       -6.7593512931
 H        -5.7178270233       -0.7592910863       -7.7658950629
 H        -4.1771029806       -1.3688378692       -8.4882963204
 H        -7.0667060879       -2.6380645511       -6.3987277917
 H        -7.3391503198       -4.1245669111       -7.3643680432
 H        -7.5647124821       -2.4981316807       -7.9945806592
 H        -2.3970233496       -4.3187606996      -13.2458734217
 H        -1.0230364073       -3.1123174267      -13.7336220574
 H        -2.7205914241       -2.5390656695      -13.5983559520
 H        -1.0507620968       -4.7142230306      -10.8792955896
 H        -0.3998063518       -3.1422721839      -10.1421575788
 H         0.1627815108       -3.7348516047      -11.6686560502
 H         2.5200096650       -1.1366357210      -13.7261097377
 H         3.4088262267       -0.0701822233      -12.6077561430
 H         3.9914359515       -0.4599181208      -14.2261037618
 H         3.7527499712        2.4274709332      -13.0608256565
 H         2.4136555611        3.3041875142      -13.6543841241
 H         3.5499979960        2.6920470935      -14.8304241213
 H         5.6398244470        1.8218632756      -19.5250103941
 H         5.7288160185        0.2230251689      -20.1917214474
 H         7.2435246168        0.8861686201      -19.6383106046
 H         7.3178377495       -1.2133430279      -18.5044362294
 H         5.5542370106       -1.8401222717      -18.8299805039
 H         6.3589998930       -1.7756449856      -17.2690947937
 H         9.2637414927        5.6879692030      -15.5884100518
 H         8.5630723978        7.0934839227      -16.5351321271
 H         8.3331351871        5.5036962554      -17.0918462392
 H         6.4444217326        6.3729434101      -13.2624871448
 H         7.4548004030        7.5272076731      -13.9067224238
 H         8.2468222877        6.1769315814      -13.4048558132
 H         1.3749225751        4.4145650423      -18.3660508617
 H         2.6352524850        5.0792366840      -19.4078511898
 H         0.9469901817        5.2935037929      -19.8611963615
 H         1.7442149160        8.7968418523      -18.5593119503
 H         1.2192968845        7.9303194997      -19.8815706081
 H         2.8729992725        7.8068078562      -19.5471323575
 H        -3.3263850992        7.1034235869      -12.6020462975
 H        -3.8152511416        7.3684667537      -14.2801502642
 H        -3.2499333580        8.5882675816      -13.4327745655
 H         0.3472449600        7.5672320033      -12.8501440434
 H        -0.8963401021        6.9553765759      -11.7900468573
 H        -1.0607662650        8.6924528890      -12.2319921150
 Na        0.7039317167        3.9314579346      -15.5188479626
 Na       -6.5021507264       -6.2888762092       -8.2341975400
