232

 C       -16.8519518898      -13.8927266916       -0.3227536818
 C       -16.1695926898      -13.9717567444       -1.7196524906
 O       -16.3133375997      -13.0456611386       -2.4588551594
 C       -15.3877835987      -15.3744411177       -2.1684356126
 C       -14.8779458744      -15.2415314088       -3.6864628323
 O       -15.8097168284      -14.9574756265       -4.4772165954
 C       -13.4630140076      -15.6948820215       -4.0152863711
 C       -13.0275085495      -15.5960532794       -5.4660371734
 C       -13.5999909388      -14.2738141515       -6.0309286590
 O       -13.4835687946      -13.3527879502       -5.3025689741
 C       -14.1221333767      -14.2119342626       -7.5031230025
 C       -15.0414019813      -12.8851197161       -7.4576001735
 O       -16.2467630062      -13.1027682901       -7.2135869750
 C       -14.5226471270      -11.4730520906       -7.5127297556
 C       -15.5603382118      -10.3169045819       -7.5392669747
 C       -15.8397496654       -9.5683657943       -6.2550439169
 O       -15.8923050102      -10.2328347155       -5.2354813377
 C       -15.9405763029       -7.9750294859       -6.3636331522
 C       -14.5631850955       -7.1604774667       -6.0340280711
 O       -13.5060013870       -7.8268357006       -5.8594717419
 C       -14.3919563185       -5.6693698515       -5.9371965325
 C       -13.3240354816       -5.1368975507       -6.8851642464
 C       -12.9700074428       -3.6190951497       -6.5893279846
 O       -13.2195546172       -3.0441659880       -5.5811367059
 C       -12.1920051835       -2.8257191614       -7.8181286499
 C       -10.5970067672       -3.1931549061       -7.4131778658
 O       -10.2425793018       -4.3257754218       -7.3419245423
 C        -9.7036048010       -1.9780434306       -7.0593373787
 C       -10.1214953149       -1.0005555844       -5.9410756890
 C        -9.9472332287        0.5100809165       -6.4462261135
 O       -10.3155314794        0.7103350070       -7.5325192428
 C        -9.3914018997        1.6641386308       -5.4989337829
 C        -7.9170460972        1.8846372059       -5.9900490592
 O        -6.9785955120        1.6747137839       -5.2530207363
 C        -7.8753005660        2.5045083563       -7.3726325709
 C        -6.4913611614        2.2443626573       -8.1889774212
 C        -5.8038549529        3.4253032867       -8.8455176515
 O        -5.3635959483        4.2471137505       -8.1196470459
 C        -5.4368361495        3.5251841358      -10.4151580220
 C        -4.2589630483        2.5332364000      -10.5881212663
 O        -4.3743658766        1.3677753969      -10.8834939721
 C        -2.8474144080        2.9824669229      -10.1800109982
 C        -2.0671527111        1.7482308063       -9.8038292965
 C        -0.5206443269        2.0215112578       -9.9694403247
 O         0.0269433170        2.4861921065      -10.8929213292
 C         0.3938521682        1.4377705549       -8.7371236408
 C         1.7980284426        1.8829935720       -9.3734333367
 O         2.3718071239        1.2271417604      -10.1674426772
 C         2.4609506070        3.2508591435       -8.8511164590
 C         3.3340256621        3.9161532824       -9.9265191730
 C         2.8346980575        5.1942026585      -10.4860594497
 O         1.7687744003        5.6676649211      -10.1988345325
 C         3.7991484075        6.0535872244      -11.6378164727
 C         4.1860699227        5.1233909461      -12.7383728360
 O         5.3089057809        4.5993001080      -12.8622138273
 C         3.0527617667        4.8498041557      -13.8339544629
 C         3.4716275746        5.5065717005      -15.2412082821
 C         3.7201937046        4.6988189107      -16.5577518292
 O         4.0812043815        3.5316970287      -16.6260979259
 C         3.5395576679        5.4060553958      -17.9561328651
 C         5.0250792015        5.5016066723      -18.3273394534
 O         5.5074736284        4.5363622224      -18.9240855140
 C         5.8531064418        6.6122098420      -17.8346474922
 C         7.3061196536        6.1944831122      -17.8446774192
 C         7.4709923311        4.9151929505      -16.8106000836
 O         6.7284961691        4.7899617510      -15.8314479086
 C         8.5286880474        3.8656187629      -17.0897968847
 C         9.8529627761        4.1118264906      -16.1455639970
 O         9.8072779829        4.6955967094      -15.0881155907
 C        11.2601817921        3.5274242889      -16.6185189060
 C        12.0646889406        3.2301600694      -15.3583787108
 C        11.7821685501        1.7916115295      -14.8453456971
 O        11.1379212545        0.9887440821      -15.5610447349
 C        12.2419377728        1.4156309799      -13.3510011271
 C        11.1784187792        0.4891024451      -12.8283662441
 O        11.4499245427       -0.6504371292      -12.5772539662
 C         9.6025312068        1.0120083364      -12.7367466610
 C         8.5388363623       -0.1701557726      -12.8749306696
 C         7.1717134193        0.3280869499      -13.3178738677
 O         7.0276822322        1.4744531280      -13.7872576771
 C         5.8585821674       -0.5548454920      -13.4066245232
 C         5.0292225044       -0.0848523693      -14.8060380088
 O         4.4659495371        0.9548478399      -14.7431873255
 C         5.0432936720       -0.9704022067      -16.0048098726
 C         6.2738914773       -2.0937076991      -13.4409042460
 C         4.8800392829       -0.1112382105      -12.3393872898
 C        13.6124867760        0.7447477526      -13.3430851346
 C        12.3046499791        2.6860348166      -12.3739319183
 C         8.0157548802        2.4543904852      -16.4583167318
 C         8.8303613491        3.7524894470      -18.6275827565
 C         2.6498972921        4.4397360766      -18.7124203936
 C         2.7845759393        6.7862704374      -17.9447336458
 C         2.8253239967        7.2224375349      -12.1119107822
 C         5.0960626843        6.4981160655      -10.9367629982
 C        -0.0101665669        2.2896404012       -7.4023499059
 C         0.4019235729       -0.1523060387       -8.4437939642
 C        -6.5902736693        2.9782329220      -11.3384386820
 C        -5.1009639129        5.0410427635      -10.8131123284
 C       -10.1221638664        3.0106104644       -5.6396751249
 C        -9.2852904133        1.3156990886       -4.0681802428
 C       -12.6549076660       -3.4759877841       -9.1947692095
 C       -12.6954007915       -1.3595522041       -7.8276139558
 C       -16.4393925041       -7.5323908299       -7.8088109950
 C       -16.9744002763       -7.5756679233       -5.2804781747
 C       -12.8799835594      -14.0934647895       -8.3938350811
 C       -15.1468147734      -15.2979585355       -7.8044001881
 C       -14.1202526948      -15.5134914670       -1.2017228466
 C       -16.3034012175      -16.6246732325       -1.9876955457
 H       -16.5469681120      -13.0095313480        0.1355872262
 H       -16.5787358537      -14.6775424807        0.3844727523
 H       -17.9459209754      -14.0287204661       -0.5289136804
 H       -13.2452465142      -16.7547736579       -3.7249750792
 H       -12.7953054502      -15.1250211255       -3.3489579775
 H       -13.2723321774      -16.4381971922       -6.1019146810
 H       -11.9694997714      -15.4095932957       -5.4600251028
 H       -13.7591434719      -11.4097622300       -8.3756749432
 H       -13.9044660779      -11.3084665229       -6.6447186596
 H       -16.4856625552      -10.6146719518       -7.8311892184
 H       -15.1903861236       -9.5791669499       -8.2427039275
 H       -14.0926027035       -5.5257893007       -4.9022740285
 H       -15.3423363304       -5.2012164378       -6.0241691790
 H       -13.6891805993       -5.2934313621       -7.8572063291
 H       -12.4481727200       -5.8753242161       -6.7674573791
 H        -9.6131711553       -1.3458239428       -7.9712487531
 H        -8.6900706389       -2.3762768009       -6.8584356509
 H        -9.5476081051       -1.2226321637       -5.0980303067
 H       -11.1861405897       -1.1719341018       -5.6231229155
 H        -8.0771010407        3.6304236269       -7.2296508547
 H        -8.6571645858        2.1442591148       -7.9768931979
 H        -6.6580384776        1.4102708916       -8.8092757684
 H        -5.6887137260        1.9379266511       -7.5635711759
 H        -2.8331107155        3.6473388111       -9.4141893306
 H        -2.3317341512        3.5673263914      -10.9084478288
 H        -2.3597959343        0.9595289462      -10.4339514829
 H        -2.3714458705        1.5014419240       -8.7663513443
 H         3.1417984192        3.0462018095       -7.9836429696
 H         1.6710088334        3.8593849930       -8.5016855802
 H         3.5123728279        3.2533469185      -10.8322719972
 H         4.3800603718        4.0936717342       -9.6074666995
 H         2.0223851127        5.2179088625      -13.5032596448
 H         3.0644842685        3.7815987017      -13.9803880257
 H         4.4515086402        6.0872824695      -15.0599305381
 H         2.8083394010        6.3651115974      -15.3981233027
 H         5.6948595263        6.9882798877      -16.7562640868
 H         5.6557937515        7.5216757944      -18.3919698141
 H         8.1519518761        6.9905147129      -17.5029039352
 H         7.5348591643        5.8101914500      -18.7993952218
 H        11.6376411609        4.2529656192      -17.3490651522
 H        11.1012791217        2.5391828284      -16.9539669565
 H        11.7496151504        3.9485050534      -14.6039326784
 H        13.1188809498        3.2895889186      -15.6379280901
 H         9.4087286973        1.8232525608      -13.4568514195
 H         9.4462143490        1.4730661423      -11.8130720702
 H         8.6019781910       -0.6522547845      -11.8785242975
 H         8.7913519194       -0.8488114526      -13.6685604145
 H         5.7225822685       -0.4658375088      -16.7648373561
 H         4.0229738186       -0.8946480300      -16.4473902483
 H         5.3055195201       -1.9734355708      -15.8291091072
 H         5.4149519937       -2.6848709085      -13.4666121846
 H         7.0901866332       -2.4407156272      -12.8019090462
 H         6.7791954132       -2.1883266832      -14.3956373104
 H         5.3472680205        0.3524777180      -11.4866588616
 H         4.2937180910       -0.8870796345      -11.8113754124
 H         4.1822075264        0.5676928577      -12.7052100315
 H        14.4392709198        1.4787858539      -13.4978124965
 H        13.7042116333       -0.0117624985      -14.0998309981
 H        13.9182076181        0.1876639439      -12.4348968759
 H        13.0246527922        3.4200276178      -12.7681236309
 H        12.5933348411        2.3325798660      -11.3779246630
 H        11.4230351878        3.3439935484      -12.3995826024
 H         7.8721682779        2.7418402119      -15.4586254554
 H         8.7443095967        1.6717843239      -16.6488119392
 H         7.1318648838        2.3071895087      -16.9878047917
 H         9.5695294742        4.5133736100      -18.7706969729
 H         7.9335817485        3.9798633002      -19.1377440874
 H         9.2981970681        2.8137218206      -18.9934816769
 H         1.6496609647        4.6351894121      -18.3538140285
 H         2.8733660850        3.3886039106      -18.4259157530
 H         2.6523310812        4.5051783314      -19.8060241980
 H         2.9698707565        7.4259802925      -18.8895839296
 H         3.2737426975        7.4155299390      -17.1742349195
 H         1.7028411089        6.7062238695      -17.9209136663
 H         3.2937002859        8.1656506511      -11.7322357323
 H         1.9056152700        7.1060581289      -11.5993894484
 H         2.7640634196        7.1949905423      -13.1589157038
 H         5.6321021639        7.1045475590      -11.6579150732
 H         5.6567386931        5.6121673137      -10.6600312280
 H         4.9666360498        7.0637317364       -9.9549149980
 H         0.8929083583        2.8470940831       -7.0476804026
 H        -0.0312928673        1.5313982775       -6.6096411321
 H        -0.8164441107        3.0251711443       -7.4719590604
 H        -0.3176986261       -0.6655111911       -7.7758457750
 H         1.2812395411       -0.4242783430       -7.9053508968
 H         0.3599682561       -0.6350556251       -9.4280168893
 H        -6.6265745721        1.8145931396      -11.3129688728
 H        -6.5033836819        3.1760128559      -12.3812304213
 H        -7.5834640925        3.3194726855      -10.9039314270
 H        -5.7399770840        5.3884587239      -11.6102022738
 H        -4.0330762702        5.1075593778      -11.0801270109
 H        -5.2396036607        5.6145511201       -9.9312427270
 H       -11.1251517924        2.9008510718       -5.2953795972
 H       -10.1642734472        3.3743510766       -6.6506247526
 H        -9.5459928808        3.7739655097       -5.1266323573
 H        -8.9955140169        2.1358269977       -3.4360509729
 H        -8.4832142240        0.6023728231       -3.8587589852
 H       -10.1698084378        0.7993229198       -3.7533885376
 H       -12.0338226002       -3.0457155610       -9.9980413516
 H       -13.7717708577       -3.3078493151       -9.4411584068
 H       -12.3738200924       -4.5573752947       -9.2042599244
 H       -13.6231897248       -1.3928509786       -8.4624325157
 H       -12.0121755551       -0.6679272953       -8.3209933693
 H       -12.9169327977       -0.8632085929       -6.7893474403
 H       -15.7203659563       -7.8805431696       -8.5565514732
 H       -16.4697686239       -6.4823409178       -7.8067564856
 H       -17.3938432905       -8.0837445049       -7.8775919870
 H       -16.9011740459       -8.1137558450       -4.2988816152
 H       -17.9125091227       -7.4471838469       -5.7238527565
 H       -16.7851979116       -6.6035964113       -4.7685287553
 H       -12.0724973174      -13.5156268748       -7.8810622600
 H       -13.2123650180      -13.6079545898       -9.3103313463
 H       -12.5625672925      -15.1387375921       -8.6672536578
 H       -15.6688545294      -15.4886211035       -6.8363493312
 H       -14.5817009125      -16.2537241402       -8.1099966202
 H       -15.6770089964      -15.0575141963       -8.7178215353
 H       -13.3342010971      -14.8437402922       -1.4231975856
 H       -13.8368499210      -16.5316123501       -1.2581971885
 H       -14.4249358035      -15.4161231605       -0.1574145615
 H       -17.3060910943      -16.3456267424       -2.2100301969
 H       -16.2116871641      -16.9962168593       -0.9604104769
 H       -16.0562324462      -17.5065529290       -2.6631319029
 Na      -16.0060803484      -12.4965539066       -4.7585829704
 Na        5.7456379546        3.1102017206      -14.5598656907
