232

 C       -21.1459214920       -6.4799803554       -1.5814536307
 C       -21.2970154531       -5.1345138959       -2.1793388885
 O       -20.7837554416       -4.1969444865       -1.6182836334
 C       -22.0028541368       -4.9311953901       -3.5401381737
 C       -20.9196955679       -4.6124412413       -4.7067972265
 O       -20.4474554782       -3.4742790653       -4.6469171810
 C       -20.5182738125       -5.6444681209       -5.7074339780
 C       -19.3059711306       -5.1414815921       -6.4866747186
 C       -18.1490774006       -4.8715945568       -5.4493168110
 O       -18.1536039611       -5.5945537477       -4.4765559440
 C       -16.9224676511       -3.9654780928       -5.7745733381
 C       -16.6534751926       -3.1182545042       -4.4748128095
 O       -17.5463998452       -2.4991449020       -3.9768983884
 C       -15.2327424884       -2.9088769198       -3.9027533762
 C       -15.3324508169       -2.1785281923       -2.5549464816
 C       -15.7394396366       -3.0553359049       -1.4283224830
 O       -16.7616092117       -3.7434797421       -1.5122840053
 C       -14.9988670358       -3.1466946458       -0.0427101194
 C       -13.6731195156       -3.8147425477       -0.4581420278
 O       -12.8042952614       -3.1860489612       -0.9900197806
 C       -13.6376480897       -5.3192567469       -0.2525959433
 C       -12.4449821372       -6.0427863695       -0.8920290277
 C       -12.5112109609       -6.1639502712       -2.4197073681
 O       -13.5215154163       -5.9098940234       -3.0441421953
 C       -11.1797678651       -6.7588037169       -3.1358051503
 C        -9.9916647312       -6.0259535579       -2.5183090042
 O       -10.1686711608       -4.9975731046       -1.9319466610
 C        -8.6309062201       -6.7080637469       -2.5426559109
 C        -7.5048429505       -5.7032922071       -2.2473491466
 C        -7.3826533642       -4.8255056643       -3.4423712248
 O        -7.8838174254       -5.0656274934       -4.5031137554
 C        -6.4676633675       -3.5117254079       -3.3437934789
 C        -5.1092003224       -4.1672786589       -3.7135151033
 O        -4.6349410035       -4.9655516169       -2.9309774684
 C        -4.5617444271       -3.8962399002       -5.0965298286
 C        -3.0826476076       -4.4042375574       -5.2845089346
 C        -1.9362061160       -3.5657086487       -4.9190572947
 O        -1.8717738167       -2.3827538115       -5.1612722227
 C        -0.6000073091       -4.2243683630       -4.3515261439
 C        -0.0768334848       -4.7636638874       -5.7688296848
 O        -0.1970646481       -5.9304044992       -5.9683081840
 C         0.5764990676       -3.7798744387       -6.7622265083
 C         0.3606774308       -4.0189712607       -8.2594838823
 C         1.2232000772       -3.0393396399       -9.2478420579
 O         2.2688905854       -2.5646075861       -8.9329954860
 C         0.7474903082       -3.0401852372      -10.7527352342
 C         1.3002341761       -1.8271988125      -11.4414684836
 O         0.6453231850       -0.8560442198      -11.6659271564
 C         2.7450525792       -1.9872030640      -12.0278184622
 C         3.1073658595       -1.0640772718      -13.2906456344
 C         4.6159164141       -0.9384612073      -13.4013378646
 O         5.2178927275       -0.2586267169      -12.6148472545
 C         5.5733174683       -1.9142374301      -14.2495941589
 C         6.7673524369       -1.2142021555      -14.9119111222
 O         6.9220267669       -1.3336218728      -16.1382974625
 C         7.7275567827       -0.4453143943      -13.9723286934
 C         9.1464083638       -0.0972116878      -14.5232232253
 C         9.0267575824        1.1139460134      -15.4034323854
 O         9.1983729382        1.0708012118      -16.5951935719
 C         8.6746087464        2.4794997867      -14.6724808778
 C         7.2946202285        2.8816140393      -15.2862653184
 O         6.3028643538        2.2883315668      -14.9956001514
 C         7.2713945946        3.6753096454      -16.6124986190
 C         5.8830660738        4.0856230886      -17.0379545246
 C         4.9981202324        3.0822827649      -17.7559749888
 O         5.2561082072        1.9982167370      -18.1691508549
 C         3.6713647174        3.7036249921      -18.3098269078
 C         3.9162393786        4.9672950590      -19.1759449105
 O         3.3944630575        5.9964305352      -18.7974468387
 C         4.6215052869        4.8354701407      -20.5947249311
 C         6.0715244812        5.2737438909      -20.5344069431
 C         6.5291438830        5.8405775154      -21.9719180931
 O         5.8145035517        6.3238994332      -22.8054487300
 C         8.1455560016        5.8081602614      -22.3006172467
 C         8.6774361659        4.4543725793      -21.8634895540
 O         8.0469911974        3.4756972639      -22.2237616672
 C         9.7125827504        4.3383693943      -20.8380407350
 C         9.9810839667        2.8233267881      -20.5946434760
 C         8.7145142420        2.0774162107      -20.1611306686
 O         7.8446835021        2.5478827160      -19.5129319392
 C         8.8038619126        0.4346823203      -20.7471412315
 C         7.4131402607       -0.3450294973      -20.4520796235
 O         6.8575542676       -0.3430820945      -19.3477261161
 C         6.5387977529       -1.0389630686      -21.4813965503
 C         9.1705291046        0.3602802449      -22.2247094467
 C         9.8195662190       -0.2191357400      -19.7625887181
 C         8.1585517588        5.7071767109      -23.9421943571
 C         8.7789844587        7.0234335524      -21.8049820881
 C         2.8742175235        2.7164414741      -19.2022675443
 C         2.6793933630        4.1418170291      -17.0961690328
 C         8.6023809170        2.4456247205      -13.1118476029
 C         9.8755049192        3.4559608897      -15.0404248667
 C         6.0058390246       -2.9715896827      -13.2203816980
 C         4.7937953431       -2.5979941020      -15.3552123686
 C         1.1675101510       -4.3963670582      -11.4788819916
 C        -0.7961082463       -2.8942251016      -10.8364950825
 C         0.3727708797       -3.2206235146       -3.6728818618
 C        -0.9686765257       -5.3391048053       -3.4236216399
 C        -6.9431994676       -2.4748526854       -4.3722302943
 C        -6.4472424256       -3.0045802446       -1.8328217072
 C       -11.0931440790       -8.3163777229       -2.9653726456
 C       -11.2774857939       -6.3044621161       -4.5905907667
 C       -14.7677348421       -1.7492285286        0.5489243031
 C       -15.7676385089       -4.0199405783        1.0329772121
 C       -15.7853770158       -4.9086312689       -6.1634314414
 C       -17.1397472685       -3.0137761515       -6.9796607151
 C       -22.8904449168       -6.0532299563       -4.0419746782
 C       -22.8842094658       -3.6138789896       -3.4313394877
 H       -22.1259643158       -6.7324821535       -1.2217680105
 H       -20.3073351681       -6.4663936760       -0.7870218842
 H       -20.8078348192       -7.2987576747       -2.2424560246
 H       -21.3236424192       -5.8815934422       -6.4651630596
 H       -20.3093665867       -6.5664691303       -5.1480695332
 H       -19.3800048638       -4.2078640235       -7.0576827741
 H       -18.9144454450       -6.0026399341       -7.0964223448
 H       -14.8154671361       -2.1684217321       -4.6257439764
 H       -14.6102564070       -3.7855077490       -3.7457764162
 H       -15.9898035445       -1.2981937255       -2.5803679041
 H       -14.3487922771       -1.7816942688       -2.3425113610
 H       -14.5935206865       -5.7580455203       -0.6066060208
 H       -13.4376062055       -5.5380202064        0.7998507661
 H       -12.4855402160       -7.0890945636       -0.5383249778
 H       -11.5949212938       -5.5219799796       -0.5178853557
 H        -8.5822055162       -7.2754848490       -3.4941630931
 H        -8.7924362334       -7.3968704539       -1.6845929947
 H        -6.5990618641       -6.2181907938       -2.0578629975
 H        -7.8245873675       -5.0617305755       -1.4245827237
 H        -4.6613170813       -2.8310389653       -5.2496442107
 H        -5.2349763260       -4.3539675734       -5.8253402461
 H        -2.9734066905       -4.7496690800       -6.2864238812
 H        -3.0092740205       -5.4234038120       -4.7596113910
 H         1.6859404677       -3.7768041080       -6.6752626403
 H         0.3517008737       -2.7859098884       -6.4519923269
 H        -0.6810297670       -4.0742246741       -8.5080743025
 H         0.5751340443       -5.1346805548       -8.5146187078
 H         3.0011868203       -2.9575915401      -12.3839755367
 H         3.5516739925       -1.7220017900      -11.2802976975
 H         2.5408142036       -0.1456479587      -13.2658779316
 H         2.6261274491       -1.6032352844      -14.1538262384
 H         7.7751180554       -1.1203192555      -13.1124281904
 H         7.3002018613        0.3778571279      -13.4277368432
 H         9.5268173123       -0.9959799228      -14.8843194846
 H         9.7300616104        0.3430353075      -13.7337118944
 H         7.7853929806        3.1270600996      -17.4642486118
 H         7.9460667896        4.5855436860      -16.4907715359
 H         5.8471974977        4.9030845915      -17.7014933098
 H         5.4136594264        4.3388749109      -16.1100803571
 H         4.0061960101        5.5408764205      -21.2013045011
 H         4.5871897133        3.8353767570      -20.9293180077
 H         6.6959363609        4.3665946919      -20.4189230833
 H         6.0667853774        6.0968970264      -19.7860764409
 H         9.5197320499        4.8703361226      -19.8842089650
 H        10.6735726480        4.8166258230      -21.2525753813
 H        10.7888569987        2.6135494528      -19.9672692406
 H        10.2875100519        2.3440180316      -21.5393622951
 H         6.6871438173       -2.1629401375      -21.4684376226
 H         6.6839814329       -0.7658671835      -22.4904170382
 H         5.4862201155       -1.0907181388      -21.1145748027
 H         9.3275962040       -0.7068706014      -22.4947956972
 H        10.1480050256        0.8463957138      -22.4774908127
 H         8.1915978077        0.6212829300      -22.7616684060
 H        10.7840844765        0.2005545962      -19.7576769810
 H         9.9383258397       -1.2892512161      -19.9912197055
 H         9.4183086508       -0.1668806966      -18.7737053590
 H         7.9542589638        4.6513867143      -24.2307579888
 H         9.0451551996        6.0696724650      -24.3695369995
 H         7.3207331856        6.2561771703      -24.3336390938
 H         9.6011538919        6.9242668965      -21.2039558934
 H         8.0413874001        7.5193345048      -21.2019540672
 H         8.9103064322        7.7538211314      -22.5399946994
 H         2.1498482326        2.1454428761      -18.5573192169
 H         3.4986156221        2.2076801098      -19.8400335701
 H         2.2102064858        3.3126204436      -19.8256375652
 H         3.2956030788        4.7849195592      -16.4925212964
 H         2.4494807314        3.3168325322      -16.3769027326
 H         1.7917458744        4.6288262719      -17.4529082296
 H         8.6064991941        3.4592896091      -12.6870582937
 H         9.3225051358        1.8654720619      -12.6364268017
 H         7.6882045190        1.9852783443      -12.6748781849
 H        10.7602512607        3.2201162311      -14.4200842989
 H         9.6401553675        4.5065546197      -14.8527759991
 H        10.0254252107        3.5234019209      -16.0898814208
 H         5.1530380679       -3.1615480807      -12.5162399809
 H         6.9338849229       -2.7240883388      -12.6149187883
 H         6.1854378234       -4.0820229368      -13.6018497487
 H         3.8533582682       -3.1416375574      -14.9967239404
 H         5.3698512036       -3.3296025715      -15.8942405659
 H         4.2989250416       -1.8538179020      -16.0580761518
 H         0.4891605625       -5.1677936524      -11.2430330473
 H         2.1743683233       -4.6203991153      -11.0913371954
 H         1.1159872526       -4.3840223918      -12.5610588099
 H        -1.1010459364       -2.1042507704      -10.1716749247
 H        -1.3571536753       -3.7819587917      -10.5423846927
 H        -0.9518449843       -2.5412225288      -11.8377001505
 H         0.0640619927       -3.1343524558       -2.6171791307
 H         0.3698230142       -2.2678574380       -4.1910450364
 H         1.4415188553       -3.4875419484       -3.6559010017
 H        -1.3088024602       -6.3168273910       -3.8529843922
 H        -1.8222699662       -5.0782993814       -2.7492112820
 H        -0.0642238227       -5.5978216936       -2.8259182857
 H        -7.3518619430       -2.9794790946       -5.2267152408
 H        -6.2166748961       -1.8330924787       -4.8612869357
 H        -7.7735213170       -1.8944894039       -4.0257549324
 H        -7.2832276352       -2.2993093651       -1.6865397430
 H        -5.6252653832       -2.3636463091       -1.7186816538
 H        -6.4630956335       -3.6793913445       -1.0108052194
 H       -11.9684513305       -8.8738835389       -3.2820217517
 H       -10.9348985348       -8.3798441725       -1.8953919787
 H       -10.2443820106       -8.7057910053       -3.5956621206
 H       -11.9246487780       -6.9832144738       -5.2027255460
 H       -10.3268568558       -6.4881118358       -5.0939332326
 H       -11.4995145636       -5.2413183918       -4.6785883091
 H       -15.6383479979       -1.3121047568        1.1465920479
 H       -14.4698962731       -1.0800402752       -0.3232049106
 H       -13.8860792986       -1.7015560365        1.2339572821
 H       -15.1558306434       -4.0776904374        1.9589221326
 H       -15.9137948126       -5.0457461240        0.6679825398
 H       -16.8120132023       -3.6856580611        1.1527624139
 H       -15.1739386061       -4.4879728617       -6.9807974479
 H       -16.0297417706       -5.9296933571       -6.4550081158
 H       -15.0929675627       -4.8261308659       -5.3896889419
 H       -18.1209563187       -2.3623170470       -6.8140747169
 H       -17.1611276736       -3.4679876023       -7.9254455459
 H       -16.4789371424       -2.1703232364       -7.0801231986
 H       -22.4155379214       -6.9816383467       -3.8355119612
 H       -23.1373664435       -5.8331745408       -5.1303224983
 H       -23.8523333455       -6.0191005831       -3.4941371816
 H       -22.4888756981       -2.9295184050       -2.6999186064
 H       -23.9201766622       -3.8719528651       -3.1880644552
 H       -22.8000730147       -3.0667881151       -4.3325387085
 Na      -18.8718992845       -3.8167708221       -2.5614081508
 Na        7.4463841013        0.7606788653      -17.6434021758
