232

 C        -2.1830453079        4.8841999394      -14.5344699322
 C        -1.1255788777        5.8322442766      -13.9277889831
 O         0.0219196952        5.4845780538      -13.7733494965
 C        -1.5482465305        7.4164896752      -13.5968304825
 C        -0.9738112874        8.0928935206      -14.8711245980
 O         0.1167333157        8.5604538171      -14.9783422122
 C        -1.7060454471        7.8400604967      -16.1747114345
 C        -0.8115702909        7.7109910883      -17.4474533620
 C         0.0505455576        6.3879141361      -17.3905164919
 O        -0.5273605022        5.3883521283      -16.9704039211
 C         1.5268011843        6.4534647191      -17.8640671321
 C         2.4745373357        6.4021173011      -16.6140815173
 O         2.3342987557        5.7180716641      -15.6379439420
 C         3.6205527749        7.4349137609      -16.6416539982
 C         4.9208215845        7.1825945089      -15.7603709922
 C         6.0110815242        6.4237478838      -16.5091651101
 O         5.9837899137        6.2010588807      -17.7189531444
 C         7.1563903766        5.9591265680      -15.5759856068
 C         6.7082154518        4.5197189944      -15.4490404381
 O         5.6929327212        4.2247034198      -14.8126297551
 C         7.4002992442        3.4200218145      -16.1936747911
 C         6.4553803543        2.3979888528      -16.7051294949
 C         6.9911455250        1.0638976180      -17.2052165251
 O         8.1545941727        0.7208458970      -16.9945936516
 C         6.0337125361        0.0669298519      -17.9223310130
 C         4.5204302114        0.2603693018      -17.3767697116
 O         3.9362867761        1.2798873655      -17.6687947063
 C         3.7915809050       -0.9400537102      -16.6548741610
 C         2.3130562597       -0.6164323726      -16.3185387788
 C         2.0638720792        0.8014618799      -15.7169001824
 O         1.6967236252        1.7535665677      -16.3732090914
 C         2.2464459267        0.9828303922      -14.1460404286
 C         0.9053974435        1.4284213242      -13.4635565279
 O         0.3693600865        2.4924982172      -13.7206445007
 C         0.1715956068        0.5525825948      -12.4623996961
 C        -0.1194087848       -0.8937064302      -12.8216556769
 C        -1.4058649586       -1.4240743334      -12.0582179521
 O        -2.1412695528       -0.7074117607      -11.3676533283
 C        -1.9658638323       -2.9550851772      -12.1249132290
 C        -3.1214159305       -3.0694278839      -11.0372855646
 O        -2.9615400253       -3.3737821482       -9.9089366067
 C        -4.5373272318       -2.8270972243      -11.4790313539
 C        -5.4349192747       -2.2271952165      -10.3190702100
 C        -5.5344026600       -3.2991830273       -9.1812537111
 O        -5.9785578869       -4.3326066325       -9.5162475881
 C        -5.2447894237       -2.9926695800       -7.6901776365
 C        -4.3576162092       -4.1417386387       -7.1518369157
 O        -4.6081170632       -5.3170929548       -7.2472538226
 C        -2.9668647690       -3.7587876834       -6.5704500137
 C        -2.8517753844       -4.5523076968       -5.2614958812
 C        -3.7368962795       -3.9607742709       -4.2045898228
 O        -4.3226546706       -2.9060854298       -4.2253874604
 C        -3.8591350185       -4.7104366228       -2.7703323096
 C        -4.7799774825       -5.8501421408       -3.1612823557
 O        -4.3321001270       -6.8251133409       -3.6994913796
 C        -6.3834056758       -5.6072863034       -2.9556310021
 C        -7.3497548694       -6.7438132951       -3.4101577015
 C        -7.1850442248       -7.1348787613       -4.9131414489
 O        -6.9791465699       -6.2807814372       -5.7178057447
 C        -7.3878208999       -8.6298642538       -5.2065714652
 C        -7.2447186282       -8.8052371523       -6.7998194788
 O        -6.2425542264       -8.5685847295       -7.4053063680
 C        -8.4748066505       -9.5152671448       -7.4088082353
 C        -8.1953280561       -9.6345341622       -8.9203197450
 C        -8.4665702399       -8.2822709436       -9.6609162044
 O        -7.5181686774       -7.6521305739      -10.1230307515
 C        -9.9009520919       -7.6115692706       -9.5969742463
 C       -10.0631827574       -6.8123153383       -8.1590388025
 O        -9.0749479593       -6.2696963907       -7.6731684343
 C       -11.4165753401       -6.8174642541       -7.5042432930
 C       -11.3483681311       -6.3651358113       -6.0388931471
 C       -12.6771053880       -5.6448079898       -5.7862083676
 O       -13.0640770318       -4.7821048725       -6.5717188554
 C       -13.4337166246       -5.8935112930       -4.4139541431
 C       -12.4680013963       -5.4304407861       -3.2862466593
 O       -11.2563435081       -5.1603821384       -3.5047234213
 C       -13.0981327241       -5.2804630452       -1.8872302676
 C       -12.0854661399       -4.8869700803       -0.7764526625
 C       -11.5734904130       -6.0535292693        0.0294812191
 O       -11.7887766022       -7.2247004337       -0.1877065051
 C       -10.7295076319       -5.7575134313        1.3433048261
 C        -9.1307626103       -5.6573820759        1.0813191257
 O        -8.6303883462       -5.5916127986       -0.0246513736
 C        -8.1758079372       -5.4829373955        2.2938776559
 C       -11.0277309271       -4.3365096174        2.0396261967
 C       -11.0391894959       -6.7809852618        2.5290721295
 C       -14.6526603391       -4.9855837473       -4.3273776875
 C       -13.8624943224       -7.4030905834       -4.1091161946
 C        -9.8556375080       -6.5283551564      -10.7003261369
 C       -11.0585775206       -8.7184955033       -9.7897527251
 C        -6.2131346410       -9.3216561749       -4.5769954162
 C        -8.6285238724       -9.2967391499       -4.5832564124
 C        -2.5733154010       -5.4013928341       -2.4430808918
 C        -4.2783968788       -3.6617626691       -1.6962135115
 C        -4.7037497977       -1.5585642279       -7.5904047913
 C        -6.5192500360       -3.0912306873       -6.8556914159
 C        -2.2566260271       -3.2350833168      -13.6101248859
 C        -0.8528471579       -3.9261319283      -11.6601360522
 C         2.9322295685       -0.1815196131      -13.3019439516
 C         3.1260788315        2.2325522656      -13.9406614784
 C         6.0715296924        0.5280791552      -19.4228510903
 C         6.4262562198       -1.4628886785      -17.7293599061
 C         8.4672867845        6.3470101342      -16.3086169242
 C         7.2034438775        6.6740990381      -14.1430101662
 C         1.8411018303        5.2016320251      -18.7700949902
 C         1.6630418918        7.6798107690      -18.8058875416
 C        -3.0343789849        7.6435524792      -13.5931578583
 C        -0.8954950360        7.9603274833      -12.2829244915
 H        -2.1937252201        3.9774260465      -13.9052058275
 H        -1.8562921877        4.5519006955      -15.5069533512
 H        -3.1667369051        5.2636271804      -14.7483743151
 H        -2.3659228867        8.6943159324      -16.4294081393
 H        -2.3575164176        6.9663030334      -16.2305795121
 H        -0.2511685029        8.6166632712      -17.5190216669
 H        -1.4430685005        7.6054779089      -18.3610568305
 H         3.1234657665        8.3784106986      -16.3763664659
 H         4.0757361127        7.7414227520      -17.5936224963
 H         4.6768854148        6.6966243530      -14.8469091082
 H         5.3930461465        8.1475715843      -15.5576732975
 H         8.1787673899        2.8347912748      -15.6517255868
 H         7.9821708647        3.9050820459      -17.0453806254
 H         5.8567278382        2.9119711061      -17.4832280799
 H         5.7068987121        2.1560693907      -15.9662974884
 H         4.2725414364       -1.2650450609      -15.7020386401
 H         3.8125020224       -1.8281747183      -17.3128811924
 H         1.9670078082       -1.4257347604      -15.6233186037
 H         1.7346222567       -0.5659416695      -17.1595109283
 H        -0.7393630004        1.0865274880      -12.1362935741
 H         0.8055626101        0.4560252146      -11.5628146005
 H         0.7523058403       -1.5023248687      -12.7286308094
 H        -0.3999808343       -0.9427658992      -13.8830114931
 H        -4.9475106441       -3.8193502804      -11.7414937377
 H        -4.7861199432       -2.2478375996      -12.4140131643
 H        -6.4717809133       -2.2076560644      -10.6351578653
 H        -5.0279948522       -1.2277773535      -10.0440191716
 H        -2.8989957715       -2.7191317188       -6.2390417835
 H        -2.2056830020       -3.9680519862       -7.2968017570
 H        -1.8189724994       -4.5627600454       -4.8261562817
 H        -3.0284833154       -5.5572573697       -5.2831750934
 H        -6.7763968972       -4.6644957306       -3.4337542979
 H        -6.5812420803       -5.4891614750       -1.8623742645
 H        -8.3649597928       -6.4283991973       -3.3619161976
 H        -7.3079499975       -7.5584900364       -2.7609679125
 H        -9.3548786938       -8.9937437799       -7.0669052033
 H        -8.5457132136      -10.4609492686       -6.9912776605
 H        -8.8040207900      -10.4794816921       -9.2307388337
 H        -7.1396141602       -9.8109993826       -9.0256484666
 H       -11.9574206260       -7.7143925836       -7.6815088961
 H       -11.9902353951       -6.0237374462       -8.0159337582
 H       -10.6231355878       -5.5993055885       -5.8862010146
 H       -11.2029113915       -7.2081419239       -5.3263854700
 H       -13.5824584487       -6.2282948457       -1.7275248947
 H       -13.9070885823       -4.4930362943       -1.9571591123
 H       -12.4769485726       -4.2107627927       -0.0111556364
 H       -11.2616676541       -4.2561878960       -1.1447172352
 H        -7.9091778192       -6.3915385838        2.9397560399
 H        -8.7168433541       -4.7480121231        2.9556857951
 H        -7.1952283629       -5.0830419937        1.9595943397
 H       -12.1055764655       -4.2698102560        2.2482262888
 H       -10.9141038959       -3.4453915320        1.3473036765
 H       -10.4987104292       -4.2274360549        2.9611288345
 H       -10.0712718124       -7.0481824227        2.9167283683
 H       -11.5325087597       -7.6885396854        2.1489011368
 H       -11.7259227208       -6.3117444342        3.2541594178
 H       -15.1401343624       -5.0800165554       -3.3380397897
 H       -15.3001582046       -5.3187405379       -5.0493027782
 H       -14.4827759823       -3.9915425054       -4.6808149720
 H       -13.0789426996       -8.1295754267       -3.8477642002
 H       -14.4653260033       -7.8637591858       -4.9163831490
 H       -14.4741247593       -7.3604712483       -3.2027218562
 H       -10.8706916552       -6.5080500917      -11.2240424861
 H        -8.9931505623       -6.6226298780      -11.4342977549
 H        -9.7016740024       -5.5150813257      -10.2788034392
 H       -10.8879379433       -9.1508247565      -10.7709741197
 H       -12.0708639950       -8.2673899588       -9.6347111168
 H       -10.8038534164       -9.5262851695       -8.9986114227
 H        -5.3586001732       -8.6426623697       -4.7585144198
 H        -6.0048973399      -10.1611364016       -5.2026581738
 H        -6.3212791801       -9.7562437885       -3.6008475125
 H        -8.5688501314       -9.1398400161       -3.5172042767
 H        -8.7836801835      -10.3881414360       -4.7340455766
 H        -9.5635830410       -8.7849456236       -4.8462150585
 H        -1.8031045172       -4.6697909212       -2.4107473436
 H        -2.2899427030       -6.1206733585       -3.2422619436
 H        -2.5832859125       -5.8142227325       -1.4586644439
 H        -5.2765247346       -3.8429736971       -1.3734450624
 H        -4.3045796036       -2.7468256287       -2.3550393544
 H        -3.5250105132       -3.5648290152       -0.9641467628
 H        -4.3567455343       -1.4321973320       -6.5623840201
 H        -5.4370398786       -0.7629844091       -7.6554287067
 H        -3.9205749915       -1.4538058316       -8.3528401190
 H        -6.2291346407       -2.9767126428       -5.8226996381
 H        -6.9501323482       -4.1113155152       -6.8115884900
 H        -7.2417382796       -2.3178114378       -7.1274652475
 H        -2.9028264830       -4.1411310385      -13.6269973582
 H        -1.3246348484       -3.4389209033      -14.1596771465
 H        -2.9438984685       -2.4239355284      -14.0366553194
 H        -1.2899470272       -4.8606319612      -11.8313526633
 H        -0.5233619760       -3.6791935499      -10.6837833603
 H         0.0253966300       -3.8066683056      -12.2990756909
 H         2.3146927188       -0.9578125208      -12.9027165858
 H         3.3480526334        0.3750215157      -12.3715183792
 H         3.8678636769       -0.5917049163      -13.7360256363
 H         2.8191082810        2.8095565666      -13.0920214686
 H         3.1771345819        2.8972920746      -14.7827734382
 H         4.1534987489        1.8620137528      -13.6846407229
 H         5.7689788245        1.6174586565      -19.5539061798
 H         5.3561530285       -0.0578388691      -20.0419227171
 H         7.0212725177        0.3964463367      -19.7917740472
 H         7.4722650809       -1.7153571359      -17.6936052868
 H         5.9801600100       -2.0538816732      -18.4777766660
 H         6.0432597442       -1.8246354278      -16.6960642520
 H         9.2722555845        5.7155000153      -15.7768029645
 H         8.7234936261        7.4103604832      -16.1548598274
 H         8.5199073462        6.1643077983      -17.3950221503
 H         6.3859894867        6.5643859786      -13.4725678583
 H         7.3309734093        7.6595710086      -14.3780785924
 H         8.0534020343        6.3550743889      -13.5636366392
 H         1.1822603045        4.3435744028      -18.4962672921
 H         2.9306725215        4.7994616976      -18.7590276350
 H         1.6126878226        5.4396302693      -19.7678237618
 H         1.6956017483        8.5848374356      -18.2868681912
 H         0.9877153383        7.6964525227      -19.6459615909
 H         2.6513513440        7.6697932462      -19.1794757497
 H        -3.5373571502        7.2256154037      -12.7416227265
 H        -3.4992688278        7.1977929735      -14.4395697976
 H        -3.2606011070        8.7119770811      -13.6617369854
 H         0.0580679341        7.5941501780      -11.9942245306
 H        -1.4268991295        7.6975448201      -11.3158757811
 H        -0.6649672600        9.0208005569      -12.5476411182
 Na        0.8231070472        3.9536679838      -15.6822950035
 Na       -6.8517480988       -6.0413564963       -8.0646104317
