232

 C        -2.1764070888        4.9374193594      -14.4683129746
 C        -1.1757683001        5.9394974628      -13.8829605032
 O         0.0133879349        5.5778909560      -13.7531138958
 C        -1.5781656144        7.3926153127      -13.6536863474
 C        -0.8940175867        7.9453444645      -14.9785365250
 O         0.2433367290        8.4310037600      -14.8938111630
 C        -1.7754472968        7.7411210396      -16.1869389837
 C        -0.8051336868        7.6713299547      -17.2644458007
 C         0.0038614156        6.3391308515      -17.3073990131
 O        -0.4906941524        5.2797959925      -16.9269017203
 C         1.4616271154        6.3983144047      -17.9190331213
 C         2.5679298862        6.5736044190      -16.6644999516
 O         2.4676657496        5.7484399281      -15.7394561030
 C         3.6832474140        7.5553801315      -16.7844845515
 C         4.7881222239        7.3253388080      -15.7123525540
 C         5.9553656276        6.5068648014      -16.4538292654
 O         5.8478527585        6.2968730476      -17.6299641965
 C         7.1536233779        5.9997449288      -15.6276285932
 C         6.7151778045        4.4739481380      -15.4671329195
 O         5.6464207151        4.2485904135      -14.9264926987
 C         7.4581012171        3.3493456793      -16.2913679895
 C         6.4581295155        2.3684042342      -16.8144505345
 C         7.0025877154        1.0659038928      -17.1423899956
 O         8.1476968623        0.7191172508      -17.0751079141
 C         5.9487074094        0.0039577751      -17.8683463105
 C         4.5132882014        0.1972280430      -17.4251217398
 O         3.9169067297        1.2653922294      -17.6084557900
 C         3.8294205243       -0.8673033045      -16.5752761630
 C         2.3563576648       -0.5156006899      -16.4223493673
 C         2.0614377876        0.8297222249      -15.6666393737
 O         1.5685552100        1.6861652563      -16.3120049203
 C         2.3203742812        1.0942188444      -14.0519620861
 C         0.8389601582        1.4591201374      -13.5709101237
 O         0.3427375130        2.5184087596      -13.8613674524
 C         0.0734521959        0.5358951123      -12.5117011558
 C        -0.3190532358       -0.9714338427      -12.9320975359
 C        -1.4582570638       -1.4305754553      -12.0360452909
 O        -2.1141810987       -0.5783255846      -11.4553092129
 C        -1.9477334018       -2.9714781920      -12.1341350185
 C        -3.0757899238       -3.1234018354      -11.0605126349
 O        -2.7680403715       -3.4121972671       -9.9196838135
 C        -4.5965105646       -2.8753926309      -11.4982506876
 C        -5.3549127600       -2.2495120249      -10.2795477742
 C        -5.6464431718       -3.2965221739       -9.1781148816
 O        -6.1098144136       -4.3736353879       -9.4734648205
 C        -5.1594715237       -2.9518009850       -7.6870643660
 C        -4.2220211519       -4.1138475929       -7.2479971888
 O        -4.6351996980       -5.2539593603       -7.3352729485
 C        -2.8886916820       -3.7612163674       -6.5602107800
 C        -2.7841610759       -4.4653180069       -5.2005769024
 C        -3.6712739811       -3.8501231390       -4.1021377896
 O        -4.3515959834       -2.9070380548       -4.4320875933
 C        -3.8244342014       -4.5961250486       -2.7571745075
 C        -4.9131307273       -5.8735060290       -3.1347844818
 O        -4.3537619211       -6.8450161266       -3.6096730897
 C        -6.3697353418       -5.6377342982       -3.0784932625
 C        -7.3079148937       -6.8118667958       -3.3315705861
 C        -7.3577948564       -7.1625642895       -4.8652258182
 O        -7.0283570122       -6.2619176308       -5.7020338976
 C        -7.4243901675       -8.6765237607       -5.1918427497
 C        -7.3797386229       -8.9032136046       -6.7047613823
 O        -6.3646789993       -8.4001397005       -7.2259999882
 C        -8.4958057351       -9.5385000150       -7.4833264868
 C        -8.1901979282       -9.7161152708       -8.9470588078
 C        -8.5072349556       -8.3697388090       -9.5900613886
 O        -7.5926078105       -7.7345568043      -10.0595626895
 C        -9.9252389133       -7.7336474345       -9.5991439196
 C       -10.0962397902       -6.9840374299       -8.2052709534
 O        -9.1647163966       -6.2685021736       -7.8733885563
 C       -11.4194902520       -7.0429014034       -7.5150700376
 C       -11.4244343678       -6.4350104201       -6.0888372341
 C       -12.6917859711       -5.6311731464       -5.8239346991
 O       -13.0281952392       -4.8403471810       -6.6149932391
 C       -13.5846342522       -5.7583596456       -4.4097169864
 C       -12.5220129010       -5.2800603069       -3.2916692147
 O       -11.4509494360       -4.9078980409       -3.6601054385
 C       -13.0059284616       -5.3004565150       -1.8218214870
 C       -11.9434459252       -4.8795502949       -0.8481673884
 C       -11.5425571554       -6.0652530435        0.2125865758
 O       -11.9585277237       -7.1339265395       -0.1091622366
 C       -10.5704189584       -5.6954437610        1.3783929590
 C        -9.1063898567       -5.5984077874        1.0610560846
 O        -8.6286998507       -5.5488314258       -0.0515284364
 C        -8.1623807286       -5.7532088943        2.3364998306
 C       -10.8805950094       -4.2284060206        1.9478465363
 C       -10.8992600542       -6.7597364050        2.5086387474
 C       -14.8123775644       -4.9136327982       -4.4240226712
 C       -13.9374918247       -7.2213305143       -4.0296917002
 C        -9.9460658254       -6.5330673143      -10.6002538240
 C       -11.0356126696       -8.7490093821       -9.7746468554
 C        -6.0396450135       -9.3136455797       -4.5611448294
 C        -8.7602105403       -9.2936480394       -4.6737415575
 C        -2.5001873309       -5.3964663821       -2.3016735152
 C        -4.2821239503       -3.6491741463       -1.6682289376
 C        -4.5632571548       -1.5472340495       -7.5463399352
 C        -6.4702308404       -2.9851976764       -6.7154085678
 C        -2.4471412863       -3.2118171311      -13.5678950881
 C        -0.8673841419       -4.0250380246      -11.7459476500
 C         2.9363480765       -0.0701535130      -13.2901034126
 C         3.3458466091        2.3014042428      -13.8789512043
 C         6.1183625638        0.4924815529      -19.3173212966
 C         6.5629927475       -1.3412076333      -17.5795262337
 C         8.4342163780        6.1278655570      -16.4354435485
 C         7.2221643401        6.6333302998      -14.2509221094
 C         1.7665708674        5.1283667073      -18.6861274741
 C         1.7163949137        7.5944094080      -18.8050270129
 C        -3.0947134807        7.7727784255      -13.5551077478
 C        -0.8263327708        7.8011627776      -12.3781460180
 H        -2.4263594174        4.2293498796      -13.7111197119
 H        -1.7658041181        4.3417922324      -15.2689322056
 H        -3.0266613980        5.4180773854      -14.9294319225
 H        -2.4804087127        8.5477130174      -16.3240111930
 H        -2.3849355400        6.8230222631      -16.1775182364
 H        -0.0791668779        8.4432305149      -16.9119939945
 H        -1.0997780533        7.9098112519      -18.3487480048
 H         3.2392112297        8.5647444552      -16.7634827460
 H         4.2132947788        7.5905891274      -17.7236356081
 H         4.3197629018        6.5890793843      -15.0725953536
 H         5.0522014293        8.2304403888      -15.1397653057
 H         8.0413867170        2.6559232448      -15.6234088060
 H         8.1827286828        3.6556325464      -16.9748016826
 H         5.9684309561        2.7008109219      -17.7452844643
 H         5.6037629456        2.2478276306      -16.1079088588
 H         4.2580851039       -1.0648877592      -15.5796061125
 H         3.9137838481       -1.8584378468      -17.1025269668
 H         1.8557096568       -1.3781217069      -15.8631255975
 H         1.8527888765       -0.3078985063      -17.3971246447
 H        -0.8802261844        1.0929721854      -12.2616301242
 H         0.7449630032        0.5591224072      -11.6014588176
 H         0.6618631739       -1.5983518131      -12.9286215081
 H        -0.6124772735       -0.9389182479      -13.9175834691
 H        -5.1116778376       -3.7953376220      -11.8183741591
 H        -4.7548257248       -2.1876461369      -12.2802297786
 H        -6.3830421218       -1.8078977939      -10.5892145182
 H        -4.6210408075       -1.4703207570       -9.8706772620
 H        -2.8402538527       -2.6855478165       -6.3080432093
 H        -2.0053457020       -3.9376019815       -7.1711496872
 H        -1.7335256318       -4.4145989792       -4.8739684850
 H        -2.8636426737       -5.5629257104       -5.1920979783
 H        -6.5562040300       -4.9327909515       -3.8837720837
 H        -6.6232831029       -5.1450055466       -2.1783802675
 H        -8.3953088719       -6.6190552074       -3.0302518804
 H        -7.0540522634       -7.6651676398       -2.8163393841
 H        -9.3562584992       -8.8483520142       -7.3217812237
 H        -8.8163723238      -10.4651628383       -6.9131071489
 H        -8.9244508699      -10.4945436923       -9.3569506418
 H        -7.1308002231       -9.9090873283       -9.1450507798
 H       -11.8903962068       -7.9916351066       -7.5915866176
 H       -12.0069394513       -6.3868086618       -8.1347155198
 H       -10.5803644430       -5.7439723254       -5.9685210703
 H       -11.4081541365       -7.2353483280       -5.3541698108
 H       -13.3602267396       -6.2547355959       -1.6542907264
 H       -13.8749465922       -4.6389070998       -1.7698968938
 H       -12.2254850181       -3.9673879312       -0.2905390304
 H       -11.0672322855       -4.4326660019       -1.4153917782
 H        -8.0073231406       -6.7862022707        2.7357517406
 H        -8.4986356062       -5.1054741877        3.2318230394
 H        -7.1729148967       -5.4857788399        2.0376951799
 H       -11.8317378705       -4.0759208381        2.3530017404
 H       -10.8001594030       -3.5387610140        1.1846063570
 H       -10.1529456115       -4.0465140163        2.7472803837
 H        -9.9682456601       -7.1246744412        3.0349540572
 H       -11.3447935309       -7.5856276096        1.9952553056
 H       -11.6662380701       -6.3385885099        3.1318921894
 H       -15.2412678457       -4.9174771214       -3.4695799887
 H       -15.4520986605       -5.4244440750       -5.1762108884
 H       -14.6862922883       -3.9087153750       -4.8715780783
 H       -13.0610924283       -7.7870743500       -3.7705886570
 H       -14.4919660719       -7.8873452054       -4.7731735293
 H       -14.5338742412       -7.1916166548       -3.1042963053
 H       -10.9760488727       -6.4111009464      -11.0068911031
 H        -9.1516198421       -6.6094181192      -11.4332620326
 H        -9.6734967936       -5.5694798833      -10.0770056150
 H       -10.7381675144       -9.2708684456      -10.7607386202
 H       -11.9205102690       -8.1101061748       -9.9252872539
 H       -11.1071070261       -9.4894403113       -8.9173149811
 H        -5.2881449167       -8.6649539325       -4.7594442345
 H        -5.7787352936      -10.2340215851       -5.0333808955
 H        -6.1825783397       -9.6108916185       -3.5421420191
 H        -8.8124342315       -9.2917115853       -3.5396534520
 H        -9.0541955933      -10.3506072339       -4.9593634708
 H        -9.5266371689       -8.6740738047       -4.9826605176
 H        -1.6876676350       -4.6986087884       -2.2035037891
 H        -2.2183731779       -6.1419407075       -3.0323433045
 H        -2.6003541725       -5.8045903075       -1.2935590608
 H        -5.3486015633       -3.8104436469       -1.4045399234
 H        -4.1905480078       -2.6715859420       -2.1572074827
 H        -3.5528883803       -3.7121652375       -0.8798054399
 H        -4.7727291263       -1.2497003783       -6.4939353402
 H        -5.1782452224       -0.8090349226       -8.0889890303
 H        -3.5008671304       -1.4285880996       -7.8858375381
 H        -6.0405335528       -2.8244528558       -5.7463039892
 H        -6.7741591897       -3.9756185224       -6.5375722859
 H        -7.2558370325       -2.3195366148       -6.9263222199
 H        -2.9390938220       -4.2021331089      -13.4976437580
 H        -1.6169456086       -3.2745645911      -14.3449598706
 H        -3.2894078115       -2.5234606255      -13.8130523332
 H        -1.4169422630       -4.9734049978      -11.7503278476
 H        -0.2983497750       -3.7623167579      -10.8702001147
 H        -0.1676523391       -4.0101753214      -12.5731115640
 H         2.3913508954       -0.9746761312      -13.2973672781
 H         3.0851601893        0.2018321218      -12.1951961681
 H         3.9810373623       -0.1357514490      -13.6197004997
 H         3.3087782274        2.7448417849      -12.8265448431
 H         3.1440455742        3.0637033555      -14.5787668818
 H         4.3626567555        1.9552984180      -13.9677641974
 H         5.8705803664        1.5810079843      -19.3110366130
 H         5.5131933584        0.0647144556      -20.1133607480
 H         7.2290585498        0.4313686818      -19.5637070679
 H         7.5812571321       -1.5127589398      -17.9199406846
 H         5.9460252039       -2.1433586075      -18.1324897927
 H         6.5102642346       -1.5195661526      -16.5603642639
 H         9.2371926314        5.8226024498      -15.8095425224
 H         8.6399364578        7.1115113312      -16.7963066115
 H         8.4369751245        5.4228388644      -17.3232143517
 H         6.3859113640        6.2755068493      -13.6221046482
 H         7.2347878241        7.6703698236      -14.3263912511
 H         8.0179464074        6.2922155496      -13.7215080653
 H         1.1033557363        4.3469402422      -18.3438124432
 H         2.8116718429        4.7038511831      -18.7239626416
 H         1.4772348941        5.3052078666      -19.6969045924
 H         1.6215114175        8.5343306979      -18.2441511243
 H         1.2012654656        7.6569115709      -19.7527173520
 H         2.7674139540        7.6809869681      -18.9325586335
 H        -3.6604410208        7.0908821122      -12.8356051291
 H        -3.5994450447        7.6485363406      -14.4980394747
 H        -3.1979277027        8.7927338802      -13.1323443533
 H         0.2048120384        7.4304318847      -12.2225169749
 H        -1.2688287217        7.5566821952      -11.4684407277
 H        -0.6230182238        8.8282171611      -12.5706435756
 Na        0.9064446255        3.8726746421      -15.5120700953
 Na       -6.5810935666       -6.1241245251       -8.1233819097
