232

 C        -2.5825942579        4.8461694533      -13.5414897224
 C        -1.3474714512        5.6431784306      -13.6798190869
 O        -0.2378208860        5.1191797813      -13.6610600981
 C        -1.4502559838        7.2215164962      -13.5528103989
 C        -0.8199721215        7.8741501672      -14.9642917046
 O         0.2968889864        8.3125476443      -14.8577208297
 C        -1.6258294031        7.8121522128      -16.3072523469
 C        -0.6533870317        7.6790380517      -17.5031206717
 C         0.2610148029        6.4627415264      -17.2657673091
 O        -0.0891805016        5.5650980780      -16.5281533911
 C         1.6072894003        6.3134512861      -18.0363710182
 C         2.7380100352        6.5307161167      -16.8953000889
 O         2.9197659636        5.5877327260      -16.1078943752
 C         3.3902611523        7.8206970993      -16.5863318668
 C         4.6678724513        7.5574158065      -15.7654579084
 C         5.7863652819        6.8149785257      -16.6662170326
 O         5.7343750351        6.6174956303      -17.8410460999
 C         7.0319962083        6.1079043689      -15.8762647475
 C         6.6084854522        4.5907655497      -15.5528688617
 O         5.7141126449        4.3986834119      -14.7697740131
 C         7.3344079207        3.2832645964      -16.1325620407
 C         6.5257492227        2.4286853917      -17.0368221464
 C         7.0893950968        0.9438351058      -17.2554083252
 O         8.1256818111        0.5527870466      -16.8817366285
 C         6.0809521977       -0.1378328892      -17.8718616825
 C         4.6123824107        0.2263126895      -17.4868860564
 O         4.0435901287        1.2017424271      -17.9918112743
 C         3.9522904051       -0.6862122353      -16.3954095615
 C         2.4403732791       -0.4196781514      -16.3884982823
 C         2.0885270311        0.9342708789      -15.5829746566
 O         1.6928020216        1.8599904023      -16.2785700364
 C         2.2373317809        1.1006057926      -14.0511458221
 C         0.7514142640        1.2845373974      -13.4399768000
 O         0.0414664003        2.2718958245      -13.6124046284
 C         0.1526856206        0.2286230578      -12.4058985196
 C        -0.7489770291       -0.6969285739      -13.2833291604
 C        -1.7145740299       -1.3450747958      -12.2965809953
 O        -2.3761106995       -0.6922494524      -11.5317277327
 C        -2.0179410050       -2.8517200133      -12.4327105577
 C        -3.0323735843       -3.1036761702      -11.2071692455
 O        -2.4971313667       -3.4249063457      -10.1047219247
 C        -4.5195384029       -2.9251535532      -11.3935101969
 C        -5.1727217591       -2.2516445956      -10.2312734237
 C        -5.5674220940       -3.1909937513       -9.0115919849
 O        -6.3261728993       -4.1379216436       -9.2846552796
 C        -5.0926698582       -2.8982453041       -7.5263294893
 C        -4.0794084033       -4.0611134563       -7.2037458131
 O        -4.4669275768       -5.2307746592       -7.3855694858
 C        -2.7276804935       -3.8610525652       -6.4685516275
 C        -2.6643979553       -4.4660836224       -5.1013932448
 C        -3.7024983724       -3.8298304050       -4.1334908867
 O        -4.2870184264       -2.7970365999       -4.4369584165
 C        -3.9370720264       -4.5743643298       -2.7881555381
 C        -4.9098060117       -5.7635453946       -3.0094225032
 O        -4.3942742148       -6.8962843727       -3.0762675916
 C        -6.3733953120       -5.5258627925       -3.0786931660
 C        -7.2822769082       -6.7268552987       -3.4010774161
 C        -7.2559046633       -7.2510761448       -4.8501169237
 O        -7.3042392766       -6.4633839589       -5.7897737779
 C        -7.5054197526       -8.8354478736       -5.0850187789
 C        -7.4707944433       -9.0615376031       -6.5824776268
 O        -6.5171952674       -8.5742528685       -7.1904171784
 C        -8.4506255515       -9.9083130359       -7.3466268221
 C        -8.2055699571       -9.7572306493       -8.8812916322
 C        -8.4914555010       -8.4176754389       -9.4181201529
 O        -7.6734763826       -7.5836409115       -9.7164681340
 C       -10.0002570050       -7.9615245435       -9.5191124881
 C       -10.2413589053       -7.1537240709       -8.1699970853
 O        -9.3598671936       -6.5358014279       -7.6510668836
 C       -11.6559575666       -7.3360924313       -7.5197007045
 C       -11.5569451480       -6.5915554875       -6.1234901965
 C       -12.8753380794       -5.7654368238       -5.9661912470
 O       -13.3211828079       -5.2824468021       -6.9805020905
 C       -13.4895121999       -5.5040750602       -4.5291209989
 C       -12.4661748637       -4.7109061033       -3.5023837091
 O       -11.9384926166       -3.7512059161       -3.9260092685
 C       -12.5302834641       -5.2858311931       -2.0677854287
 C       -11.3170301062       -5.1095790729       -1.1353370382
 C       -11.4290858384       -5.7991061597        0.3008070084
 O       -12.2479812231       -6.6996800389        0.3985787015
 C       -10.4722120272       -5.5260039387        1.4455301127
 C        -9.0373562144       -5.7714314357        0.8895230238
 O        -8.6640079205       -5.3960233218       -0.1929284123
 C        -8.0184738456       -6.6711870535        1.6247161566
 C       -10.3858641203       -4.0130162029        1.8129449259
 C       -10.6915143337       -6.4199584396        2.6669052417
 C       -14.6452957285       -4.4142168697       -4.5866994103
 C       -14.0852137107       -6.8259995630       -4.0589113575
 C       -10.0239525389       -6.7927368979      -10.6542174045
 C       -11.1541705400       -8.9702044010       -9.7605781062
 C        -6.2405996418       -9.5102741609       -4.5625579672
 C        -8.8822917598       -9.1626631179       -4.4038670185
 C        -2.6001647897       -5.1757692592       -2.2250624266
 C        -4.2423263442       -3.3642754306       -1.8096014761
 C        -4.3831776835       -1.5702209635       -7.2880359893
 C        -6.2001866046       -3.0223512254       -6.4461936818
 C        -2.6799570805       -3.3413395246      -13.7968515719
 C        -0.7873836527       -3.7484575583      -12.2171074242
 C         2.8854074493       -0.0966669738      -13.2675763497
 C         2.9241797994        2.4969299299      -13.6941405632
 C         6.1013267879       -0.1575307003      -19.4034901636
 C         6.5902261870       -1.5091863371      -17.2894143651
 C         8.2915905883        6.1941182710      -16.7976097945
 C         7.2359502099        6.7432916299      -14.5119020035
 C         1.7825696919        4.7824683579      -18.5539729671
 C         1.7966701944        7.2054057187      -19.2508756663
 C        -2.9648558405        7.7262754192      -13.4127555486
 C        -0.5296456130        7.5993633506      -12.4028282331
 H        -3.0725066335        5.0127254667      -12.6134937091
 H        -2.2242643501        3.8302288437      -13.3579233759
 H        -3.1952914988        4.8776369067      -14.4555619857
 H        -2.2285806994        8.6850024544      -16.5065121914
 H        -2.4097886111        7.0476491401      -16.3485875378
 H         0.0212518649        8.5474305437      -17.4268230097
 H        -1.1842161335        7.6139814111      -18.4764741161
 H         2.7277267245        8.4900956416      -15.9815198708
 H         3.6596795754        8.4673519753      -17.4080763711
 H         4.3339457762        6.9640848704      -14.9453932194
 H         5.0477416933        8.5026321129      -15.3935230429
 H         7.6915448295        2.7515783857      -15.1793364396
 H         8.2634000105        3.3403967700      -16.6220675610
 H         6.4966469363        2.8592772293      -18.0383474325
 H         5.4939689854        2.3759851726      -16.6927991886
 H         4.5004364285       -0.4537637517      -15.4876076965
 H         4.2360807053       -1.7586042191      -16.4598609537
 H         1.7805479412       -1.1784507125      -16.0036701212
 H         2.1100880866       -0.2834958126      -17.4840861925
 H        -0.5106730288        0.7822352335      -11.7454658388
 H         0.9373960866       -0.2948916813      -11.9681990366
 H         0.0289048151       -1.3221708861      -13.8804750872
 H        -1.2896751338       -0.2334976851      -14.0369559765
 H        -5.0659138060       -3.8920695645      -11.4906379798
 H        -4.6952654030       -2.2206033423      -12.1481042063
 H        -6.1892265218       -1.8172142636      -10.5855549007
 H        -4.5995676997       -1.3239540491       -9.9867403160
 H        -2.3357379446       -2.8735906991       -6.4574936804
 H        -1.9427416656       -4.2850530085       -7.0453377150
 H        -1.6731901358       -4.4745500930       -4.7242032680
 H        -2.7869628146       -5.5512050123       -5.2144266243
 H        -6.5318018983       -4.7103511683       -3.8149721386
 H        -6.6955615193       -5.1815734517       -2.0764910280
 H        -8.2947813714       -6.4488115132       -3.1831219832
 H        -7.0887663734       -7.6165108502       -2.7592951596
 H        -9.4164540628       -9.7084183460       -7.0423840893
 H        -8.2718719295      -10.9549115326       -7.0833451762
 H        -8.9036894739      -10.4711343067       -9.3551024059
 H        -7.1904639212      -10.0220678407       -9.1259498806
 H       -11.9960036814       -8.3569646494       -7.4465623668
 H       -12.4000326195       -6.7850657848       -8.0982689924
 H       -10.7185700546       -5.8788584745       -6.1929054311
 H       -11.3474633485       -7.2911335051       -5.3197201986
 H       -12.7910687944       -6.3172527289       -2.1379830118
 H       -13.4527109727       -4.8318711038       -1.6091660346
 H       -11.0231764543       -4.0568620518       -1.1012822835
 H       -10.3946324021       -5.5523143999       -1.5913636402
 H        -8.0694107754       -7.7702139495        1.3732792484
 H        -7.9552151331       -6.4669838552        2.7078318525
 H        -6.9677440003       -6.3494798888        1.3452185173
 H       -11.4159899657       -3.7359775641        2.1393124834
 H       -10.0537497643       -3.3253837794        1.0474736601
 H        -9.7874562593       -3.8944138202        2.8080863463
 H       -10.8650136529       -5.7765413989        3.5740088556
 H        -9.8846621090       -7.1263233528        2.7958152060
 H       -11.6132397649       -6.9439821301        2.4653905422
 H       -15.1442407497       -4.2714152275       -3.7083766675
 H       -15.3368605142       -4.7544365991       -5.4047176771
 H       -14.1766277226       -3.4564862637       -4.7818672936
 H       -13.2359257965       -7.4568334983       -3.8196422139
 H       -14.6715583687       -7.5013416168       -4.7081707956
 H       -14.7658968971       -6.6912300829       -3.2088229951
 H        -9.9644762003       -5.8013786712      -10.1685656029
 H       -10.8904454516       -6.7250784192      -11.3424355915
 H        -9.0459043374       -6.7226423727      -11.2437640244
 H       -11.0426453923       -9.5824641109      -10.7543792891
 H       -12.1003373216       -8.3671718523       -9.8328871304
 H       -11.2379707439       -9.6818716422       -8.8912342057
 H        -5.4682760486       -9.4410106608       -5.2891617985
 H        -6.4572178424      -10.6196033094       -4.5405642667
 H        -6.0581532879       -9.3172039672       -3.4948070668
 H        -8.7312771452       -9.1910405061       -3.2998103512
 H        -9.3285215174      -10.1402025420       -4.6067036061
 H        -9.6165741740       -8.4525618086       -4.6675700443
 H        -1.7617355293       -4.4845434081       -2.0963686599
 H        -2.3919079231       -6.0581874672       -2.7749345493
 H        -2.8784476972       -5.6629481740       -1.2788543900
 H        -4.8862231988       -2.5869718188       -2.2647176379
 H        -3.2874043704       -2.9782854727       -1.5572176285
 H        -4.6799141996       -3.8323474424       -0.9066887063
 H        -4.2035319598       -1.3129330580       -6.2441243802
 H        -4.9557201926       -0.8874007377       -7.8923806257
 H        -3.3697592194       -1.5601488519       -7.7220142811
 H        -5.8856509912       -2.8058630715       -5.3832188675
 H        -6.5813024760       -4.0541345560       -6.4257173485
 H        -7.0227008828       -2.3209115532       -6.7201772683
 H        -3.0072311769       -4.3596479584      -13.5356911772
 H        -1.9082425135       -3.5216798867      -14.6089173910
 H        -3.4516014578       -2.7021104004      -14.2175204375
 H        -0.9901838401       -4.8212310662      -12.2404741940
 H        -0.4321901402       -3.5315551722      -11.2200065938
 H        -0.1191481243       -3.3935742307      -12.9504957806
 H         2.1140787270       -0.9183718409      -13.1740176979
 H         3.0773699317        0.2023657855      -12.2625686083
 H         3.7828110993       -0.4208182533      -13.8290189163
 H         3.9798356318        2.4015094652      -13.3650858129
 H         2.2444383748        3.0764583294      -13.0877256257
 H         3.0253162035        3.0952031437      -14.5484013946
 H         5.7573474326        0.8008625460      -19.6705410487
 H         5.5578611579       -0.9251097936      -19.8983818871
 H         7.1985173846       -0.0705391750      -19.7612355971
 H         7.6236840502       -1.6446597673      -17.5909594337
 H         6.1607164442       -2.3170503491      -17.9747072911
 H         6.4591714238       -1.7353265692      -16.3156119529
 H         8.9690413385        5.3674356160      -16.5723373357
 H         8.8501518038        7.1375759844      -16.6294977803
 H         7.9722380132        5.9240573449      -17.8637138783
 H         6.3407625455        6.6926466065      -13.9374190631
 H         7.4554546669        7.7776852992      -14.7138553668
 H         7.9798392260        6.3776976341      -13.9137588523
 H         1.9651920449        4.0673117044      -17.7312334910
 H         2.4937272524        4.7159909303      -19.3128320470
 H         0.7535901363        4.4552366175      -19.0026984036
 H         1.7199813788        8.2550342759      -18.8763911247
 H         1.2589205126        7.1092139821      -20.1450368612
 H         2.8631558165        7.0494991666      -19.4116716474
 H        -3.2310969447        7.6964290128      -12.3896644367
 H        -3.4446405572        6.9431921419      -13.9189420967
 H        -3.1557011615        8.7159329609      -13.6691863033
 H         0.5804369954        7.4899755366      -12.7709500802
 H        -0.6416201045        7.0884062245      -11.4529755415
 H        -0.5902177108        8.6692235070      -12.0867778067
 Na        1.0996940232        3.9802488352      -15.3079457397
 Na       -6.7327069743       -6.0701977695       -8.0534176033
