232

 C        -2.5973073766        4.9986225836      -12.9711445878
 C        -1.3259501593        5.7006720269      -13.4191782268
 O        -0.2822247154        5.1595882098      -13.6234451191
 C        -1.3578818171        7.3103695342      -13.4684792720
 C        -0.6166816681        7.7023639209      -14.8328805828
 O         0.5347252634        8.0760457616      -14.8447294940
 C        -1.3808959990        7.8387985692      -16.1857361652
 C        -0.5800859060        7.5405964082      -17.4645605714
 C         0.2477072829        6.2464515809      -17.2657554374
 O        -0.1403211941        5.4050811309      -16.5386193541
 C         1.6121237931        6.0007455816      -18.1210348761
 C         2.6229428847        6.1787269634      -16.7953916115
 O         2.7445769275        5.2754162656      -16.0092953572
 C         3.2419354368        7.4652143805      -16.4644576440
 C         4.6787226970        7.2627061210      -15.8974061643
 C         5.7381884224        6.6556743102      -16.8460006719
 O         5.6406760729        6.4793340586      -18.0550128237
 C         7.0776964622        6.1294555708      -16.1143102146
 C         6.6865299340        4.7253313869      -15.7769400089
 O         5.7157529006        4.5563458305      -15.0827362890
 C         7.3232497845        3.4872640884      -16.3804577092
 C         6.3177464619        2.5800235941      -17.0999450346
 C         6.8661849923        1.0717397908      -17.0415221051
 O         7.9627551248        0.8308818270      -16.5474482205
 C         6.1306298267       -0.0837241314      -17.7186673023
 C         4.6037278730        0.1344955887      -17.6224831127
 O         3.9464503599        0.7202904190      -18.4656071171
 C         3.8911994857       -0.7671715797      -16.5198074270
 C         2.4791454046       -0.2529935713      -16.2084257917
 C         2.3185017772        1.0459223237      -15.4625927126
 O         2.1211393670        2.1347295169      -16.0071066751
 C         2.2877701158        1.0648828467      -13.8029067104
 C         0.8657250537        1.2067330226      -13.5406271739
 O         0.2496588060        2.1401672424      -14.1108157708
 C         0.0541522192        0.2447382283      -12.6147532163
 C        -1.0841939363       -0.5136663976      -13.4642337392
 C        -2.1038691719       -1.2121504151      -12.4888310934
 O        -2.7562309420       -0.5481671282      -11.7422642906
 C        -2.1603261614       -2.8517616168      -12.5679153577
 C        -3.0781835416       -3.3537310498      -11.3219580802
 O        -2.6083570571       -3.8549973693      -10.2772369609
 C        -4.5761484068       -2.9735123148      -11.4318389261
 C        -5.1943369067       -2.2931772153      -10.2105594001
 C        -5.5608857453       -3.1782220201       -9.0678196028
 O        -6.2277188023       -4.1685731450       -9.4027430189
 C        -5.3087300868       -2.9564485675       -7.5126491009
 C        -4.4739065170       -4.2771874619       -7.0059492481
 O        -4.9004035155       -5.4225319753       -7.1605559684
 C        -3.0498882388       -4.2729798714       -6.4813019800
 C        -2.9107728390       -4.8459550018       -5.1204451166
 C        -3.5888677737       -3.9777187679       -4.0404994520
 O        -3.7327648077       -2.7706855407       -4.2092232540
 C        -3.9294180358       -4.5572175726       -2.6134652449
 C        -4.9224676981       -5.7467489585       -2.8432370979
 O        -4.5504851626       -6.9660881323       -2.8956624815
 C        -6.4288251208       -5.3800194822       -2.9513286998
 C        -7.3236352251       -6.5998612489       -3.2847072502
 C        -7.0505015756       -7.1592879357       -4.6846290877
 O        -6.7722924527       -6.4786468938       -5.5987293259
 C        -7.3829273061       -8.7031756120       -4.9990696685
 C        -7.1796015184       -9.0302169431       -6.4793402460
 O        -6.2658421247       -8.6498068728       -7.1106923260
 C        -8.1461892862      -10.0302430863       -7.1346026893
 C        -8.1345715183       -9.8269677199       -8.6979866289
 C        -8.4375894204       -8.4092763027       -9.2383166722
 O        -7.5348407971       -7.7088608015       -9.5866896715
 C        -9.9755188619       -7.8938607115       -9.3626325728
 C       -10.2770824760       -7.1240530882       -7.9737955165
 O        -9.3959523289       -6.4679113423       -7.5010480224
 C       -11.6824663689       -7.1975683945       -7.3315465469
 C       -11.7240249052       -6.3313050865       -5.9991190638
 C       -13.0908169365       -5.6113674268       -5.9122384291
 O       -13.7538363850       -5.4445708780       -6.9633138035
 C       -13.6513652437       -5.1548934907       -4.5763936352
 C       -12.4678052097       -4.8137702081       -3.5710034981
 O       -11.7293710270       -3.8935077621       -3.8894012912
 C       -12.3480219274       -5.6744104922       -2.2861997210
 C       -11.1708180763       -5.0680588742       -1.4185213371
 C       -11.2522345384       -5.5272877049        0.0363698432
 O       -12.3343093775       -6.0076947332        0.4267450741
 C       -10.1180856558       -5.2865122372        1.0299209565
 C        -8.7856600579       -5.9284510292        0.5605436502
 O        -8.1924578824       -5.3536983543       -0.3527980138
 C        -8.3248625868       -7.2913617445        0.9653609564
 C        -9.9100227450       -3.7637704669        1.1759350582
 C       -10.5387097642       -6.0610130831        2.4497575042
 C       -14.5570659208       -3.8132201915       -4.7291958996
 C       -14.5733890205       -6.2557915602       -4.0053505273
 C       -10.0218473565       -6.8845927374      -10.4464106915
 C       -11.0139156455       -9.0077578692       -9.4918902860
 C        -6.3147969640       -9.5791467936       -4.3444390164
 C        -8.8093694009       -8.8885156791       -4.4172568744
 C        -2.6764683956       -5.2168353754       -1.9945924766
 C        -4.4714303480       -3.4692236653       -1.7637325762
 C        -4.4840525478       -1.7295342244       -7.0552502986
 C        -6.6465594048       -2.9768211181       -6.7615531022
 C        -2.7798494936       -3.3442359691      -13.8582423677
 C        -0.7303828383       -3.4968761884      -12.3566967315
 C         2.9258767450       -0.0955876787      -13.0054502720
 C         2.9473483091        2.3828523109      -13.3817883093
 C         6.4796558710        0.0733143604      -19.3378409440
 C         6.6255444855       -1.3306184333      -17.0995697814
 C         8.2253417053        6.2648931879      -17.1844999097
 C         7.4445353580        6.7666241274      -14.6993102703
 C         1.8164705320        4.6293377927      -18.6969207443
 C         1.8602500613        7.1692284423      -19.2103345095
 C        -2.8607668271        7.7175219135      -13.3703499767
 C        -0.5220493828        7.8322942101      -12.3114032751
 H        -2.9304963777        5.4243934328      -12.0145906329
 H        -2.4126979130        3.8994037655      -12.8261684143
 H        -3.3994926587        5.2371051519      -13.7277710849
 H        -1.9950402970        8.7382796427      -16.2812687688
 H        -2.1372116680        7.0368663996      -16.1677536770
 H         0.0239330791        8.3870131721      -17.7145181590
 H        -1.2504969923        7.3213099935      -18.2580404498
 H         2.5296321293        7.9898917655      -15.7884369084
 H         3.4874746391        8.1511302368      -17.2469080402
 H         4.6379172419        6.8003900077      -14.9292731006
 H         5.1262395773        8.2446911736      -15.7435155163
 H         7.7226872813        2.9433036327      -15.4392339077
 H         8.1843400815        3.5761189785      -17.0326862448
 H         6.2705983001        2.7816359166      -18.1610784084
 H         5.3427941628        2.7208145925      -16.6586347973
 H         4.3857133714       -1.0109829417      -15.6028751539
 H         3.7376702396       -1.8010457137      -16.8510586455
 H         1.8987229434       -0.9796098263      -15.7923773504
 H         1.9784122948       -0.0035423986      -17.1768158310
 H        -0.5506818988        0.8665226020      -11.9238300733
 H         0.7052568588       -0.3381552117      -11.9966728079
 H        -0.7123785112       -1.4053921824      -14.0722179256
 H        -1.6383419131        0.0768435323      -14.1356685830
 H        -5.2358046792       -3.8765201379      -11.6136103392
 H        -4.6643464518       -2.1438313011      -12.1106970574
 H        -6.1507790375       -1.8063056243      -10.4789208779
 H        -4.6443324565       -1.4292247620       -9.9255528865
 H        -2.3856988566       -3.4567311064       -6.6095991088
 H        -2.5277978035       -4.9663359465       -7.1224940828
 H        -1.8852803327       -4.9949229191       -4.9327568989
 H        -3.3529914492       -5.8665147584       -5.2049530044
 H        -6.4495049766       -4.5643535159       -3.7427198261
 H        -6.6579899001       -4.9494216616       -1.9128359157
 H        -8.3064381202       -6.4209404228       -3.1928422350
 H        -7.1229055235       -7.4539269251       -2.5384845388
 H        -9.0839431423       -9.9244125882       -6.7471578256
 H        -7.8286211156      -11.0332283779       -6.8772762692
 H        -8.7585032503      -10.5361614838       -9.1993519137
 H        -7.1540535263      -10.1230813915       -9.0033185194
 H       -11.9506835412       -8.2550503731       -7.1448228803
 H       -12.4522531945       -6.7552772633       -8.0561016546
 H       -10.8791776271       -5.6087832893       -6.0531986709
 H       -11.4845946267       -6.9374747111       -5.1303094848
 H       -12.2644387629       -6.7461154392       -2.5896610143
 H       -13.3470741567       -5.6619001111       -1.7287030281
 H       -11.3436717427       -4.0056964945       -1.4393085568
 H       -10.1816172616       -5.2783319001       -1.8356428528
 H        -9.0429664671       -7.9399801741        1.4439379590
 H        -7.5075858325       -7.1627877047        1.5950885122
 H        -7.8881451471       -7.9323752477        0.1259249411
 H       -10.8675511006       -3.1932284204        1.1434974593
 H        -9.1464459966       -3.3354669726        0.5151783734
 H        -9.3879526949       -3.5668806170        2.1404116459
 H       -10.7678040950       -5.2929896142        3.1854916259
 H        -9.6431445247       -6.5244771541        2.8449635127
 H       -11.3821178269       -6.7079125393        2.3866905530
 H       -15.0297411390       -3.5098211970       -3.8099429494
 H       -15.3679330969       -4.2305758689       -5.3797834783
 H       -14.0019102736       -2.9564428445       -5.0609036551
 H       -14.2350620468       -7.2352095133       -3.6398956083
 H       -15.4106047400       -6.5453539865       -4.6199964634
 H       -15.0671500834       -5.7759004730       -3.1277712723
 H        -9.3085599000       -7.1257578098      -11.1954823493
 H        -9.7531787738       -5.9048495366      -10.2040538388
 H       -10.9358495085       -6.8205772399      -11.0150480842
 H       -10.7745149723       -9.7024323338      -10.2854540665
 H       -12.0329234193       -8.6627595786       -9.7782376871
 H       -11.1361329627       -9.6165929286       -8.6337842139
 H        -5.3011821119       -9.0415019016       -4.4308374734
 H        -6.3154003966      -10.5608453296       -4.9416991026
 H        -6.4256171127       -9.7381586607       -3.2434048399
 H        -8.8566949115       -8.1951686243       -3.5867447706
 H        -9.1657392326       -9.8279919199       -4.1340082788
 H        -9.5457226054       -8.4150914498       -5.1018601771
 H        -1.9383306833       -4.3774817974       -1.8740184840
 H        -2.2973344654       -5.9641397381       -2.6716730115
 H        -2.8669865583       -5.6790252846       -1.0019347277
 H        -5.3262705347       -3.0408538074       -2.2698145774
 H        -3.7285371538       -2.7428801520       -1.8299296867
 H        -4.6944217261       -3.7360380473       -0.7062973176
 H        -4.2209195766       -1.8401271303       -6.0300693645
 H        -4.9353846907       -0.8087369499       -7.3728491994
 H        -3.4970892283       -1.7873656516       -7.4435974442
 H        -6.4655138896       -2.8442891840       -5.6748621649
 H        -7.1984464485       -3.8780531293       -7.0629291400
 H        -7.3762041671       -2.1365102385       -6.9355754484
 H        -2.8457113291       -4.4026464365      -13.7039557576
 H        -2.3434994642       -3.1264687138      -14.8073058904
 H        -3.7660880706       -3.0506509756      -13.8692415241
 H        -0.7960783164       -4.6116002616      -12.3445024179
 H        -0.5321421043       -3.2988515818      -11.3003591748
 H        -0.0136460955       -3.1652706958      -13.0763572913
 H         2.4568832280       -1.1330176551      -13.2375791251
 H         2.9767432413        0.2506543627      -12.0343887995
 H         3.9505450034       -0.2060859668      -13.4147898642
 H         3.8167251593        2.5846117499      -14.0123485861
 H         3.3447900934        2.3808091115      -12.3319533233
 H         2.2421551997        3.1724655934      -13.4180101242
 H         6.0124356954        0.9452095472      -19.6686192349
 H         6.1018986138       -0.7574907314      -19.9093154286
 H         7.5558462522        0.1488829069      -19.5828392905
 H         7.6875435535       -1.5307810921      -17.2278164327
 H         6.0317158402       -2.1589891523      -17.4806410496
 H         6.4716330303       -1.3406089936      -16.0264271820
 H         9.0346583003        5.7209919191      -16.7140995244
 H         8.5211555869        7.3099873854      -17.4613822024
 H         7.9275397169        5.8042406749      -18.1493909979
 H         6.6884249606        6.6965191970      -14.0163822924
 H         7.6153016735        7.8877799791      -14.8425057768
 H         8.4296828099        6.4080181054      -14.3765005795
 H         1.4143392078        3.9010327985      -17.9645710641
 H         2.7758701806        4.3783469685      -19.0163973975
 H         1.0478472028        4.5971679507      -19.5787663293
 H         1.9888210507        8.1354559696      -18.7483844277
 H         1.0734722389        7.3033373366      -19.9057656686
 H         2.6662105415        6.7878870140      -19.8179062202
 H        -3.2394172928        7.0427392285      -12.7232659812
 H        -3.2669451946        7.5674616010      -14.3774938116
 H        -3.0529009204        8.7118109978      -13.0333487572
 H         0.4236769567        7.2808076810      -12.1210333166
 H        -1.1503302832        7.9463612708      -11.3804464521
 H        -0.3080754533        8.9324760835      -12.3620723914
 Na        1.0627005085        4.0990453569      -15.2692597468
 Na       -6.9919610438       -6.0644632720       -8.0239736041
