232

 C        -2.4773337910        4.9303268945      -12.8889295869
 C        -1.3359336550        5.7751588814      -13.3922585186
 O        -0.2478268401        5.2580828140      -13.5833885101
 C        -1.4212000930        7.3459769106      -13.4974003041
 C        -0.6039845726        7.7738784785      -14.8217844019
 O         0.5984635505        7.9025528705      -14.7610235556
 C        -1.4178245260        7.8554750253      -16.1572385035
 C        -0.6359822268        7.4700666594      -17.4407320927
 C         0.1102675050        6.2209274758      -17.3983890471
 O        -0.2831496478        5.2577243598      -16.7889810428
 C         1.6049845433        6.0383214441      -18.0331154430
 C         2.6155002821        6.2111789392      -16.8755270410
 O         2.6919865018        5.2258797065      -16.1254351379
 C         3.3318400570        7.4859161601      -16.5365442673
 C         4.7378048464        7.1978002558      -15.8243661042
 C         5.8233315029        6.7293115788      -16.8131285984
 O         5.3998381602        6.4609115677      -17.9530025307
 C         7.1480554761        6.1609032382      -16.2661737469
 C         6.6518523277        4.6825842073      -15.8855605518
 O         5.7129686095        4.5925207276      -15.1112587910
 C         7.3767941562        3.5112698345      -16.4245460257
 C         6.3159830280        2.5186035677      -17.0109163567
 C         6.8679265548        1.0904839983      -17.0446233233
 O         7.8574064493        0.8892447288      -16.3536602618
 C         6.1024113462       -0.0868116085      -17.7841849149
 C         4.6054360332       -0.0603368544      -17.7330212992
 O         3.9181960514        0.6542539803      -18.4081019967
 C         3.9439166056       -0.6939898478      -16.4787088763
 C         2.4880161687       -0.2043054150      -16.2058125273
 C         2.4638307806        1.0838643848      -15.4050466807
 O         2.2740429296        2.1406707942      -15.9569879069
 C         2.3672758384        1.0756489928      -13.8669314833
 C         0.7327419906        1.1544662815      -13.6290407647
 O         0.0793759390        1.9795253564      -14.1651484690
 C        -0.0263877465        0.2229093910      -12.6162478972
 C        -1.0683927435       -0.4987421058      -13.4535506478
 C        -2.0683549438       -1.2705607234      -12.5289765361
 O        -2.7696870975       -0.5212361947      -11.8673949124
 C        -2.2052931454       -2.8029014205      -12.4859647470
 C        -3.0514443772       -3.2496387530      -11.3143371972
 O        -2.6166697266       -3.9740690656      -10.4923885289
 C        -4.5923829967       -2.8856577338      -11.4169138282
 C        -5.2328677455       -2.2015656457      -10.1453200729
 C        -5.6656044713       -3.2657706204       -9.0456735580
 O        -6.2920172511       -4.2764233637       -9.3347220344
 C        -5.3093333814       -3.0977264905       -7.5402144705
 C        -4.5199750374       -4.4248321741       -7.0979452772
 O        -5.1198782473       -5.4315099250       -7.1220967575
 C        -3.1145521782       -4.3312832043       -6.5561736764
 C        -3.0241958229       -4.9011272254       -5.0783286961
 C        -3.4711718159       -3.9821038052       -3.9547221815
 O        -3.7184747393       -2.8132025342       -4.1523818423
 C        -3.8797054800       -4.5728744559       -2.5329059673
 C        -4.9239477974       -5.7792243599       -2.7732443142
 O        -4.5742947008       -6.8814722789       -2.9408310118
 C        -6.4591767991       -5.4723108351       -2.8375858053
 C        -7.2491792878       -6.6573186676       -3.3518298681
 C        -7.0500104294       -7.1760801432       -4.7307329622
 O        -6.7824826478       -6.4206467705       -5.6601704782
 C        -7.3697431881       -8.6781115469       -4.9169048863
 C        -7.1743468797       -9.0054464033       -6.4457162956
 O        -6.2292820526       -8.4441520050       -6.9714142552
 C        -8.0596424419      -10.0146388142       -7.2083886341
 C        -8.0321733581       -9.8488399559       -8.6874184563
 C        -8.4707199138       -8.4667061372       -9.1474193179
 O        -7.6493093357       -7.6639360196       -9.6409349137
 C        -9.9551804036       -7.9207174327       -9.2242763185
 C       -10.2209774582       -7.0610533044       -7.8850149381
 O        -9.3104757358       -6.3308159135       -7.4276814807
 C       -11.5978602037       -7.1054398009       -7.2618625009
 C       -11.8349343281       -6.2531784933       -5.9488423349
 C       -13.2861823739       -5.5846171873       -5.9423545805
 O       -13.8748728565       -5.3624904004       -6.9802988074
 C       -13.8159508506       -5.1413706078       -4.5326547193
 C       -12.5387018947       -4.9112150988       -3.6861824053
 O       -11.7146153861       -4.0234504548       -4.0609602088
 C       -12.2168812780       -5.6667093319       -2.3542472870
 C       -11.1151450876       -5.0081760908       -1.4565737402
 C       -11.3027386825       -5.5204052269        0.0268129330
 O       -12.2940028271       -5.9143928033        0.5204921565
 C        -9.9784691978       -5.2280543270        1.0311669148
 C        -8.7708782596       -5.9925377525        0.3891623981
 O        -8.0978080189       -5.3615359195       -0.3828813218
 C        -8.4666983244       -7.4278535050        0.7294253205
 C        -9.7564726092       -3.7974429755        1.1037243383
 C       -10.4211998229       -5.8109006134        2.4147051192
 C       -14.3626014926       -3.7101699721       -4.7430146325
 C       -14.7910300638       -6.1568499802       -4.0377228909
 C        -9.8686854841       -6.9069124753      -10.4021321286
 C       -11.0497824748       -9.0215824738       -9.4382900150
 C        -6.2322913513       -9.5652005254       -4.1333279170
 C        -8.8455310012       -8.8484736753       -4.3509508576
 C        -2.5991956265       -5.3330991056       -1.8882986635
 C        -4.5051607831       -3.3705862717       -1.7116096839
 C        -4.5128832142       -1.7714119796       -7.1966835944
 C        -6.6874107668       -3.0038673691       -6.7652103314
 C        -2.7967645182       -3.3368459908      -13.8532951407
 C        -0.7633559070       -3.3930356013      -12.3326901856
 C         2.9299577262       -0.2291095089      -13.1018233192
 C         2.9759342075        2.4089173433      -13.3290985116
 C         6.4410463405        0.1173419788      -19.2972387204
 C         6.7658191967       -1.3276981496      -17.1392513590
 C         8.4058452098        6.2431341441      -17.1726770003
 C         7.5156736213        6.8010277386      -14.9284501091
 C         1.7850905408        4.6302113982      -18.5424867921
 C         1.7927006636        7.0692210853      -19.1736420143
 C        -2.8354573780        8.0424000431      -13.3616047416
 C        -0.6040531472        7.8937950616      -12.2601254408
 H        -2.6329417986        4.8919316970      -11.7796358817
 H        -2.1371573434        3.9493481853      -13.2563722726
 H        -3.4203184908        5.2045597884      -13.3606274115
 H        -1.7915578210        8.8823608499      -16.2996657178
 H        -2.3324291915        7.2637215997      -16.0547220874
 H         0.1437378688        8.2946955646      -17.5259125333
 H        -1.2452948971        7.4476311178      -18.3526070828
 H         2.6642672465        7.9786266402      -15.8124788966
 H         3.5230523461        8.2003116263      -17.3552043385
 H         4.4599731210        6.3233165901      -15.1961930387
 H         5.0747490526        7.9212362119      -15.1212571710
 H         8.0596668592        3.1260349765      -15.6995371284
 H         7.9620412039        3.8571457513      -17.3436700122
 H         5.8941021984        2.8879881454      -17.9575531423
 H         5.5116942460        2.4274612480      -16.2672174712
 H         4.4443795631       -0.6313016356      -15.4907038303
 H         3.8643540946       -1.7854040184      -16.5159132330
 H         1.9507065190       -1.0216236169      -15.6524762430
 H         1.8652156694       -0.0339204846      -17.1085356270
 H        -0.4708598408        0.7433359534      -11.7671872914
 H         0.6947202053       -0.4586432225      -12.1566722157
 H        -0.6647989500       -1.1087438588      -14.1881161742
 H        -1.7833827239        0.2230632284      -13.9951030652
 H        -5.1161747929       -3.8130179904      -11.4697032817
 H        -4.8143818593       -2.1735786468      -12.2079815170
 H        -6.0612471584       -1.4157968794      -10.3132611543
 H        -4.4469388181       -1.5080151594       -9.6549454485
 H        -2.7869936755       -3.3183478592       -6.4329144037
 H        -2.3521573498       -4.7047124485       -7.2177614890
 H        -2.0185362268       -5.2057988289       -4.9377250393
 H        -3.6810378049       -5.8131206240       -4.9983600787
 H        -6.5745813380       -4.6615496766       -3.5289110994
 H        -6.7804759374       -5.1887357495       -1.8380865944
 H        -8.3204209020       -6.3247800883       -3.4974584592
 H        -7.4013016335       -7.4820611475       -2.5945034639
 H        -9.0836114437       -9.8467599103       -6.9046964930
 H        -7.7393121332      -10.9401652328       -6.8022532718
 H        -8.5520428380      -10.6047644179       -9.2522825997
 H        -6.9819158867       -9.9951510747       -9.0218308830
 H       -11.6902399431       -8.1849635656       -6.9912967900
 H       -12.3738367677       -6.8825415120       -7.9983755962
 H       -11.0821562671       -5.4219195901       -5.9444537283
 H       -11.5558712985       -6.8250472009       -5.0851269780
 H       -11.8981353008       -6.7325031753       -2.5468022139
 H       -13.0875441607       -5.7697270115       -1.7888405420
 H       -11.2508143460       -3.8893118662       -1.4278158726
 H       -10.0786205726       -5.3035356816       -1.7518578545
 H        -9.3848455507       -7.9057266797        1.1579505030
 H        -7.7871841576       -7.3536439109        1.6237141010
 H        -7.9759418115       -8.1619070314        0.0659024517
 H       -10.6303971471       -3.2409395605        0.6675857970
 H        -8.7974861123       -3.5485119932        0.5192027129
 H        -9.4948496361       -3.3704430045        2.0491456842
 H       -11.0539657495       -5.0895968180        2.8377543467
 H        -9.5633859933       -5.9084687411        3.1131408681
 H       -11.0164956499       -6.7457021285        2.3079415638
 H       -14.9731475923       -3.2577212789       -3.9240828432
 H       -14.9694200407       -3.8512168926       -5.5731324449
 H       -13.5178359587       -3.0994595939       -4.9250326517
 H       -14.4918365633       -7.2417434096       -3.8737695625
 H       -15.5929404685       -6.2313976208       -4.7266085231
 H       -15.2667994280       -5.8992467640       -3.0823099175
 H        -9.7532132225       -7.3575884383      -11.4100732996
 H        -9.0916544947       -6.1096864744      -10.4425389952
 H       -10.8295776006       -6.4273653993      -10.4909997935
 H       -10.9042414282       -9.6759068470      -10.3017544645
 H       -12.1097461383       -8.6135679506       -9.6032896178
 H       -11.1608977122       -9.7559924588       -8.5557201054
 H        -5.2284187321       -9.1526795767       -4.4836554979
 H        -6.3665630326      -10.6094622964       -4.4063361322
 H        -6.1452508724       -9.3778933388       -3.0579130987
 H        -8.9518347406       -8.5962387330       -3.3347606040
 H        -9.1655130423       -9.8345307164       -4.5630980672
 H        -9.5763895237       -8.1204233896       -4.8700170679
 H        -1.8119213927       -4.5899419981       -1.6537466370
 H        -2.2104388172       -6.1330095800       -2.5629568092
 H        -2.9336544662       -5.7461651120       -0.9326676476
 H        -5.5631691065       -3.2745724488       -1.8764613026
 H        -4.0479853969       -2.4567549848       -2.1017314097
 H        -4.2937562353       -3.4906286594       -0.6400048882
 H        -4.3000261246       -1.6254881638       -6.1622072558
 H        -5.1581307226       -1.0223759529       -7.6668892352
 H        -3.5324309708       -1.7107820791       -7.6380309142
 H        -6.4778380609       -2.9979462601       -5.6980827425
 H        -7.4907098210       -3.6773521674       -7.1542144086
 H        -7.1587052877       -1.9862048353       -6.8325851817
 H        -2.9285934721       -4.4250185775      -13.7579467549
 H        -2.0616310351       -3.1766443248      -14.6220175106
 H        -3.7679921903       -2.9311158714      -14.1680767942
 H        -0.6624887832       -4.4574882349      -12.3422250439
 H        -0.4022844438       -3.0626664552      -11.3612329180
 H        -0.2217956642       -2.9608452574      -13.1575754051
 H         2.4251117433       -1.0972225568      -13.5258982328
 H         2.8943956531       -0.0178200144      -12.0260267674
 H         3.9646353492       -0.4273359358      -13.4158874426
 H         3.7326638366        2.7643259524      -13.9488062653
 H         3.5064901527        2.2176987258      -12.3910246803
 H         2.2164856326        3.2058698444      -13.1295253601
 H         5.7808208141        0.8301698826      -19.8320499797
 H         6.4200177642       -0.8657334187      -19.8324737638
 H         7.4219662618        0.3920591894      -19.3786098817
 H         7.8369516271       -1.3552043569      -17.1623211866
 H         6.3491843950       -2.1771054633      -17.5157810309
 H         6.5164993459       -1.3866306602      -16.0147796176
 H         9.1136514189        5.4395238035      -16.7827533906
 H         8.9182789306        7.2555826483      -17.1307234785
 H         8.1483765958        6.1716309563      -18.2099600656
 H         6.7093247545        6.7445859953      -14.2306016029
 H         7.7243665988        7.7862511551      -15.0277695756
 H         8.4023895318        6.3377059000      -14.5645677194
 H         1.5499639524        3.8741559161      -17.7855620869
 H         2.8691342994        4.4546362433      -18.9231224609
 H         1.1261326559        4.5217561783      -19.3583236114
 H         1.6526532136        8.0689896875      -18.9194497225
 H         1.0928264944        6.8349897783      -19.9613532827
 H         2.7241594623        6.7950167179      -19.6245018714
 H        -3.0679256813        7.5396703684      -12.4714489797
 H        -3.5276445530        7.7772319570      -14.1001203063
 H        -2.7717734528        9.0899820998      -13.3178153514
 H         0.4091087806        7.5378372877      -12.2383063230
 H        -1.1021363171        7.7502379589      -11.2313753636
 H        -0.6135015519        9.0193150693      -12.2105805890
 Na        1.1450578842        4.0352228397      -15.1755557865
 Na       -6.9290707033       -6.2355916757       -8.0770888829
