232

 C        -2.3707391023        5.0537000004      -12.8648361349
 C        -1.2476438432        5.9480060477      -13.3191710442
 O        -0.1821609984        5.4722831412      -13.6533663820
 C        -1.3076839589        7.4896824416      -13.3847850370
 C        -0.5828767420        7.7191283299      -14.8119861725
 O         0.6139845526        7.6467731379      -14.8471248921
 C        -1.5391501307        7.7247573782      -16.0342733629
 C        -0.5673189512        7.5106463706      -17.2103193692
 C         0.0792993750        6.0933367277      -17.3774000220
 O        -0.5566759471        5.1283686903      -16.9893321017
 C         1.5763761585        6.0325001046      -17.9635210816
 C         2.6167136230        6.1846743184      -16.7909334830
 O         2.8023630807        5.3602894652      -15.9390306925
 C         3.2881875058        7.5175883001      -16.6602431487
 C         4.6818326172        7.3267440257      -15.9524797465
 C         5.7301266578        6.7195007448      -16.8116231232
 O         5.5879812278        6.5250955179      -17.9997900738
 C         7.1246657209        6.1710393706      -16.2298098393
 C         6.7631722625        4.7008138961      -15.9152618600
 O         5.9453961835        4.5073829935      -15.0507688961
 C         7.2177272337        3.5483294067      -16.8819318297
 C         6.1994964419        2.3611552821      -16.9580521914
 C         6.8165523161        1.0067220525      -16.8329264375
 O         7.7052239480        0.7692774330      -16.0473827194
 C         6.2538592686       -0.1279083874      -17.8391862960
 C         4.6767780162       -0.1350866699      -17.5322158393
 O         3.9923727538        0.4811190582      -18.3594244727
 C         4.0590839254       -0.6463108494      -16.2978538498
 C         2.6045852086       -0.1970318195      -16.1305770150
 C         2.4755569792        1.1212933964      -15.4343556399
 O         2.6278432348        2.1832125822      -16.0190896884
 C         2.2699576430        1.0417658520      -13.8859878016
 C         0.7231199485        1.1348729046      -13.6415440732
 O         0.0759373126        2.0317858304      -14.2235257070
 C        -0.0687677748        0.0711538097      -12.7747957995
 C        -1.2533876032       -0.5937702224      -13.5194695438
 C        -2.2169521571       -1.2352682405      -12.5432167617
 O        -2.9169997523       -0.4424505239      -11.9677688528
 C        -2.1791424753       -2.8217497404      -12.5672520242
 C        -3.2599883943       -3.3134539555      -11.4142316479
 O        -2.8110224263       -4.0672666649      -10.5133437931
 C        -4.6836046193       -2.8354509371      -11.5511763587
 C        -5.1429396549       -2.3256960716      -10.1579526166
 C        -5.6855161226       -3.4014449177       -9.1319906852
 O        -6.3649779610       -4.3464978077       -9.4408450008
 C        -5.3713847413       -3.1391586280       -7.4842874121
 C        -4.4880552446       -4.4038478617       -7.0566111704
 O        -4.9264832599       -5.5581093097       -7.2569019722
 C        -3.1303545041       -4.2946968751       -6.3181066257
 C        -3.1604373291       -5.0925905335       -5.0015094125
 C        -3.5481536961       -4.0757826414       -3.9109011302
 O        -3.6180926540       -2.8841127301       -4.1687983959
 C        -3.8549257998       -4.6535835854       -2.3934617765
 C        -4.8964650893       -5.7155663074       -2.7535793213
 O        -4.5609431061       -6.9126462956       -3.0726215458
 C        -6.3490943667       -5.3675361219       -2.9267076609
 C        -7.3103649361       -6.5349954299       -3.0420322400
 C        -7.2080735219       -7.0489801731       -4.5088429235
 O        -7.1044737006       -6.2286772952       -5.3512429120
 C        -7.3561513217       -8.6486615750       -4.8022205966
 C        -7.0637433018       -8.8923211534       -6.4060133837
 O        -6.1872377278       -8.4562165271       -7.0903872262
 C        -8.0824704224       -9.9297808402       -7.0745749506
 C        -8.0576017750       -9.8351441285       -8.6294654700
 C        -8.2818923541       -8.4084173723       -9.2023109776
 O        -7.4346281676       -7.8218178632       -9.7662174429
 C        -9.8722476611       -7.8957821909       -9.1564861779
 C       -10.0965986172       -6.9598733549       -7.8753542172
 O        -9.3056808217       -6.2529834058       -7.3306532315
 C       -11.6090487915       -7.0292240574       -7.3137580941
 C       -11.8579927791       -6.1304974611       -6.1225374152
 C       -13.3072063236       -5.5016080117       -5.9762258641
 O       -14.0399961120       -5.4869862884       -6.9759430144
 C       -13.7198077381       -4.9568073169       -4.5988739739
 C       -12.3909302291       -4.9754464479       -3.6386043749
 O       -11.5169583881       -4.2903506269       -4.0673777909
 C       -12.2749405456       -5.7123611980       -2.3788697737
 C       -11.1725708499       -4.9915351237       -1.5838684289
 C       -11.2133687573       -5.3392794208        0.0100764499
 O       -12.2582072005       -5.8316432353        0.4730640859
 C        -9.9393176032       -5.1644871813        0.8995560212
 C        -8.8558412089       -6.0244947039        0.2923151746
 O        -7.9360574348       -5.5465879702       -0.4013669522
 C        -8.9026068186       -7.5346521445        0.4578293676
 C        -9.4724656805       -3.5871096397        0.7668847001
 C       -10.2110934041       -5.5563628552        2.4367933026
 C       -14.3961226773       -3.5140688673       -4.7673927739
 C       -14.8695943579       -5.7879219074       -4.0489757581
 C       -10.2704838971       -6.8015378435      -10.2006331722
 C       -10.8389261442       -9.0920135221       -9.1944043205
 C        -6.2947948581       -9.4470036927       -3.9431300437
 C        -8.7870404800       -9.1985110945       -4.3450600766
 C        -2.5709106030       -5.1937914967       -1.8917653003
 C        -4.3666438945       -3.4992465721       -1.4636017553
 C        -4.5795793382       -1.8438758785       -7.2556850137
 C        -6.7329277802       -3.1425765535       -6.6693620177
 C        -2.7506842304       -3.2619815029      -13.9150361621
 C        -0.8132157922       -3.2683976586      -12.2452978116
 C         2.9234681086       -0.2046049987      -13.2749509612
 C         2.9471700051        2.2560646926      -13.0972030102
 C         6.6212711214        0.1594379473      -19.2566019314
 C         6.7580326030       -1.4932547532      -17.4829684419
 C         8.1772881260        6.2699919007      -17.3997929951
 C         7.5667251362        7.0362125023      -15.0186735891
 C         1.6635870607        4.6065642259      -18.5227681016
 C         1.7284821501        7.0122230688      -19.0975386287
 C        -2.7528113046        8.1158481301      -13.5044752160
 C        -0.5341953133        8.0512904769      -12.2191037933
 H        -2.0341963334        4.7741377246      -11.9136670717
 H        -2.5398508094        4.2054354236      -13.5093938296
 H        -3.2894136370        5.5797820625      -12.6339287390
 H        -1.9818545516        8.7355277430      -16.1031894333
 H        -2.3675385028        6.9929410760      -16.0276320571
 H         0.2192531836        8.2247024649      -17.0290995824
 H        -1.0512505582        7.7497817753      -18.2047723406
 H         2.8037889982        8.1853153488      -15.9364871365
 H         3.4852641989        8.0925600570      -17.5504655318
 H         4.4745264607        6.7749374543      -15.0313420568
 H         5.0233878891        8.3293331928      -15.5470692551
 H         8.1624847050        3.1396981495      -16.4523910887
 H         7.3374890609        3.8750257857      -17.8629057319
 H         5.7338175308        2.3399641943      -17.9493541580
 H         5.4019840482        2.4339798489      -16.1786368095
 H         4.6600395927       -0.3282392627      -15.4276178553
 H         4.0671526186       -1.7685592130      -16.2962495463
 H         2.0001720255       -0.8677612345      -15.5488131514
 H         2.1389247281       -0.2627239652      -17.1464071048
 H        -0.2274495860        0.6750408953      -11.8263792239
 H         0.6379238341       -0.6567736685      -12.3452170564
 H        -0.9652068764       -1.4018392393      -14.3198478132
 H        -1.8096899277        0.1311398874      -14.0110791846
 H        -5.3526810338       -3.6996015892      -11.8105652362
 H        -4.7999980907       -2.0165370406      -12.2355920127
 H        -5.8131913766       -1.5113472700      -10.1078549184
 H        -4.3099809621       -1.9164041530       -9.7068099226
 H        -2.6275208305       -3.3088379451       -6.1214421634
 H        -2.3870169988       -4.8236756829       -6.9776327831
 H        -2.0908977421       -5.4475529933       -4.8068562840
 H        -3.8523857145       -5.9064367091       -5.2036149501
 H        -6.2972524538       -4.8114956577       -3.8858175663
 H        -6.6003319091       -4.6960943692       -2.0996471839
 H        -8.3297886243       -6.2318972425       -2.8456470123
 H        -7.1316374814       -7.2969508145       -2.2880560091
 H        -9.1696326803       -9.6515118424       -6.9360978580
 H        -7.8958394509      -10.9416686218       -6.5330198321
 H        -8.8638568514      -10.4937504806       -9.0574083637
 H        -7.1803626838      -10.2213832041       -9.1523025414
 H       -11.9604140153       -8.0102764767       -7.1113887077
 H       -12.3037256647       -6.6293867452       -8.0498653489
 H       -11.1679976798       -5.3134363984       -6.1194640333
 H       -11.5476100488       -6.6702586616       -5.1982358842
 H       -12.0342968083       -6.7331651921       -2.4807284306
 H       -13.2433523944       -5.6175592985       -1.7669232493
 H       -11.4247643637       -3.9452430158       -1.6634438068
 H       -10.1699789593       -5.2601254889       -1.9408517135
 H        -9.8019405537       -8.0653675142        0.1421802797
 H        -8.6447139982       -7.9845803015        1.3900848462
 H        -8.0944720748       -7.8810150311       -0.2208704996
 H       -10.2865599108       -2.9703549047        0.4932652500
 H        -8.6944504792       -3.4191610505        0.1004394859
 H        -9.0779648698       -3.1758486377        1.7179427890
 H       -11.3367917633       -5.6240976145        2.6006362303
 H        -9.8192959740       -4.8001250166        3.1102610784
 H        -9.7827614069       -6.5197874910        2.6897218918
 H       -14.8546428597       -3.3904612016       -3.8197245080
 H       -15.2296872271       -3.6235860715       -5.5467773613
 H       -13.6804718469       -2.6941537636       -4.9919348169
 H       -14.7011943451       -6.8307232561       -3.9955350785
 H       -15.7241109722       -5.6995569215       -4.7449475505
 H       -15.1927581151       -5.6758368270       -3.0168288000
 H       -10.8412596261       -7.0071930134      -11.1056360569
 H        -9.4285652776       -6.2920741517      -10.6552532195
 H       -10.8860058070       -6.0026303688       -9.6672310742
 H       -10.8769695922       -9.8077719540      -10.0426216864
 H       -11.8291604278       -8.6646202817       -9.1590643802
 H       -10.8092499561       -9.6590422316       -8.3137763302
 H        -5.3589848242       -9.4616976198       -4.4266191024
 H        -6.7019844048      -10.3820461239       -3.6883781212
 H        -5.9689017087       -8.9091683734       -3.1210478698
 H        -8.8303293591       -9.2434955035       -3.2154289081
 H        -8.9063033336      -10.1917219558       -4.7936030451
 H        -9.5780783764       -8.5413628911       -4.6031043838
 H        -1.8029138773       -4.4520479906       -1.7559026631
 H        -2.2596308233       -5.9219337341       -2.5957219093
 H        -2.7888709558       -5.5802299856       -0.8994133277
 H        -5.4798815463       -3.4758609437       -1.3766413404
 H        -4.0255716201       -2.5064183545       -1.7376607107
 H        -4.0413796805       -3.7852983623       -0.4400082067
 H        -4.5167291576       -1.6498045252       -6.1202922295
 H        -5.1402658084       -1.0049214339       -7.6961039940
 H        -3.5415907766       -1.8929069251       -7.6826335614
 H        -6.6430367004       -3.0094801936       -5.6074939834
 H        -7.3129299082       -3.9135763320       -7.0429553559
 H        -7.3345631746       -2.3353167485       -7.0006532907
 H        -2.9577476134       -4.3415691538      -14.1027895076
 H        -1.9463585603       -2.9106090368      -14.6421033492
 H        -3.6600505561       -2.7052437637      -14.1934372606
 H        -0.8121603745       -4.3202656576      -11.9030944980
 H        -0.4291953065       -2.6274303043      -11.4608849425
 H        -0.1933144111       -3.2168803224      -13.1484610744
 H         2.5878604122       -1.1511837025      -13.7720325316
 H         2.7373663331       -0.1647819379      -12.2556415153
 H         3.9755397305       -0.1508752105      -13.4281314612
 H         3.7960443950        2.7324722048      -13.6782561424
 H         3.4827460152        1.9775316792      -12.1890297771
 H         2.2044073156        2.9891430428      -12.9514108200
 H         5.8795167179        0.8900725946      -19.5393231101
 H         6.5905138649       -0.6638920750      -19.9505585452
 H         7.7158595224        0.5539340430      -19.4108069040
 H         7.8570352989       -1.4132127559      -17.5742194381
 H         6.3432276474       -2.3242459543      -18.1505959480
 H         6.6784819083       -1.8249849496      -16.4991963239
 H         9.0966103758        5.8542828207      -17.1548488406
 H         8.3042766778        7.3074758960      -17.5610727261
 H         7.7408652280        6.0331337506      -18.3765876999
 H         6.8782703821        6.8995948114      -14.1928579678
 H         7.5295745137        8.1822715829      -15.3085675875
 H         8.5685604844        6.7098120353      -14.6430015448
 H         1.6800020576        3.8795466561      -17.7373924925
 H         2.5988689728        4.5855495970      -18.8716513215
 H         0.9547522446        4.3992552996      -19.3871727267
 H         1.3113176730        8.0223468662      -18.8026298328
 H         1.1682580318        6.6247036964      -19.9523390759
 H         2.7913265193        7.0504086898      -19.3799684961
 H        -3.2013072526        8.3588978305      -12.5297068560
 H        -3.4452607985        7.3369718652      -14.0116158785
 H        -2.6174413555        8.8785548558      -14.2995480626
 H         0.5228134014        7.9569122122      -12.4067759911
 H        -0.6870537154        7.3999021837      -11.4153519453
 H        -0.7544874419        9.0191511387      -11.8961693456
 Na        0.9978511000        3.8722588972      -15.0907472923
 Na       -6.9494968864       -6.3664361832       -8.0945404886
