232

 C        -2.1905356572        5.1375425972      -12.3679317342
 C        -1.1063577280        5.7781014934      -13.1400743983
 O        -0.0804682364        5.2396399766      -13.4770469154
 C        -1.1442613176        7.4139935612      -13.4932845543
 C        -0.5800227055        7.8369674216      -14.9367315356
 O         0.5894267198        8.1342342984      -15.0787694495
 C        -1.5288975047        7.7953336802      -16.1139037877
 C        -0.7321307998        7.4076024811      -17.4387392417
 C         0.0700882390        6.1063534861      -17.3004733001
 O        -0.3940787838        5.1857613259      -16.6457625078
 C         1.5265611870        5.9626745491      -17.8770053611
 C         2.4034790676        6.5134847018      -16.7231795732
 O         2.4822052302        5.7546928818      -15.8086019705
 C         3.2914452514        7.7706634247      -16.7435361921
 C         4.6399035098        7.2977167633      -16.1123844088
 C         5.7019081029        6.6541418760      -17.1252608825
 O         5.4032698349        6.5938310877      -18.3127588437
 C         7.0739042226        6.1896929428      -16.5650758758
 C         6.8631410509        4.6454571104      -16.1629503170
 O         6.7888625472        4.3551333513      -14.9932137287
 C         6.8649216077        3.5229450339      -17.1981065623
 C         6.1061091868        2.3184031180      -16.4863554806
 C         6.7412682758        0.9251919784      -16.6361661751
 O         7.4562139526        0.5137390627      -15.7424099569
 C         6.3759426677       -0.1471019314      -17.8061804088
 C         4.7836975726       -0.1142397885      -17.8153411799
 O         4.0952810835        0.1225314071      -18.7650836422
 C         4.2394091486       -0.6017876444      -16.4676162623
 C         2.7596968053       -0.1914643227      -16.0354019795
 C         2.5656205565        1.1029020562      -15.2291812391
 O         2.5039676429        2.1444231897      -15.8565431642
 C         2.3288944285        1.0632364928      -13.7259241157
 C         0.6841464294        1.0156439564      -13.6992803735
 O        -0.0537525996        1.8874229263      -14.1551030598
 C        -0.1399545885       -0.1656050269      -12.8812099650
 C        -1.5004085615       -0.4613255820      -13.6814454149
 C        -2.5217658299       -1.2401333218      -12.6512759239
 O        -3.2158569219       -0.6620930406      -11.8757344544
 C        -2.5268062751       -2.8080069704      -12.6419052665
 C        -3.4999500242       -3.3327216631      -11.4056307553
 O        -3.0889015273       -4.0366907996      -10.4925383896
 C        -4.9003243533       -2.8520716172      -11.5311230857
 C        -5.4203548929       -2.4756496567      -10.1315306886
 C        -5.6227628538       -3.6289361689       -9.1168368727
 O        -6.2280095860       -4.6096121036       -9.4419888423
 C        -5.2508935996       -3.3097291252       -7.5206664199
 C        -4.2788773441       -4.4992203322       -7.0688325557
 O        -4.5473774956       -5.6768545546       -7.3096378320
 C        -2.9241524944       -4.2256251011       -6.4825277451
 C        -2.7948671239       -4.8305483321       -5.0441815859
 C        -3.4813911798       -3.9983206664       -3.9107206459
 O        -3.8452095479       -2.8572957851       -4.1267926842
 C        -3.6969873125       -4.6788590180       -2.5081795650
 C        -4.8792334941       -5.7294249278       -2.6691636184
 O        -4.5607824996       -6.9454340042       -2.6875785488
 C        -6.3973759726       -5.3376622135       -2.7445360497
 C        -7.3852757475       -6.5287367692       -2.8675828914
 C        -7.3935561351       -7.0366826413       -4.3450947888
 O        -7.4187419057       -6.1930406253       -5.2467630249
 C        -7.3260302722       -8.5599620259       -4.6077120593
 C        -7.3393435396       -8.7366595776       -6.1952558641
 O        -6.4321964158       -8.2359834806       -6.8073162919
 C        -8.3558653018       -9.6254080714       -6.9704227799
 C        -8.0576543509       -9.6858858937       -8.5255664839
 C        -8.4880018535       -8.3617557416       -9.2029423216
 O        -7.5967422141       -7.6122031450       -9.5689399196
 C       -10.0005881019       -8.0010860922       -9.4168295372
 C       -10.2843740384       -7.1191265767       -8.1530017710
 O        -9.3178418100       -6.5475203519       -7.5924691151
 C       -11.6726908230       -6.8476068918       -7.6260970547
 C       -11.6634500337       -5.8454195370       -6.4230495427
 C       -13.1207855523       -5.5478081336       -5.9562763293
 O       -14.0296583130       -5.8840113753       -6.7776357158
 C       -13.5292451782       -4.8043816824       -4.6435266138
 C       -12.3539671377       -4.5668462626       -3.5956450154
 O       -11.2894374079       -4.1596042586       -4.0128955821
 C       -12.6040363434       -4.8696188603       -2.1398082116
 C       -11.2303646506       -4.9138781090       -1.5273171113
 C       -11.1881842809       -5.2014522595        0.0662280300
 O       -12.1580195171       -5.7133296633        0.5784055127
 C        -9.8922099360       -4.9460512154        0.7412254208
 C        -9.0297392906       -6.2024688694        0.3126674719
 O        -7.8433351596       -6.0698176721        0.0491540732
 C        -9.6736338100       -7.5344440843        0.1265335813
 C        -9.1446463882       -3.6869716629        0.3398175630
 C        -9.8877295046       -4.9626016729        2.2654541251
 C       -13.9871216221       -3.3466714224       -5.1046883998
 C       -14.7516747485       -5.4819747934       -4.0638283033
 C       -10.3160351023       -7.1855581582      -10.7123963712
 C       -10.9736075112       -9.2189512675       -9.2376616482
 C        -6.0045862195       -9.1157358912       -3.9993768545
 C        -8.4445030675       -9.2669819958       -3.9040042461
 C        -2.3833447712       -5.5494018613       -2.0870560318
 C        -4.2162711574       -3.7411009067       -1.3384826570
 C        -4.6741220272       -1.9445570857       -7.2738168941
 C        -6.5383139646       -3.3563849339       -6.5855313536
 C        -2.9340300903       -3.5464160921      -13.9955930545
 C        -1.0214027856       -3.3011107875      -12.2697390128
 C         2.9040798668       -0.1511822605      -12.9552358175
 C         2.7825532022        2.2952790506      -12.9216766616
 C         6.9123290694        0.4913847595      -19.2185381792
 C         7.0933332388       -1.4155585492      -17.5129592034
 C         8.2144160518        6.2523496845      -17.5696317559
 C         7.3192963223        7.0191579908      -15.2293264210
 C         1.8899472192        4.4340186483      -18.2148885937
 C         1.7307628665        6.8025583300      -19.2507471909
 C        -2.6105864845        8.0135078780      -13.3807603289
 C        -0.1283314627        8.0692396285      -12.4368928015
 H        -2.4189007040        4.1742676641      -12.7426371575
 H        -3.0657724832        5.7649279894      -12.1930201789
 H        -1.7052443856        4.8439481944      -11.4359176374
 H        -2.0217825575        8.7476882189      -16.3028880676
 H        -2.2431237140        6.9803673175      -15.9158217261
 H        -0.1252994661        8.2984304946      -17.7375740352
 H        -1.4856156616        7.2537746297      -18.2986365592
 H         2.8503635051        8.5840785921      -16.1280589796
 H         3.6115871057        8.1319383740      -17.7094965076
 H         4.4577874115        6.7112908071      -15.2101702250
 H         5.1771075849        8.2205047208      -15.7439700072
 H         7.9192775835        3.2230642075      -17.2117674506
 H         6.4725044047        3.7865067479      -18.1012268965
 H         5.0283358477        2.2809530936      -16.7495008466
 H         6.2551403760        2.4874371155      -15.3861845551
 H         4.8652355228       -0.2685423334      -15.6517061821
 H         4.1219871366       -1.7091384000      -16.5426999445
 H         2.3856488685       -1.0485432142      -15.4842243105
 H         2.0628178629       -0.2146854556      -16.9840687520
 H        -0.2166332874        0.0826153918      -11.7779817860
 H         0.5150144899       -1.0242417590      -12.8049328399
 H        -1.5067953064       -1.1805982728      -14.5713273418
 H        -1.9681194803        0.4468070849      -13.9067038382
 H        -5.5890714034       -3.5793206561      -11.9831818994
 H        -5.0422267210       -2.0007759956      -12.1574275814
 H        -6.3979543675       -1.9318858835      -10.1627104741
 H        -4.7105518872       -1.8033048938       -9.6667428489
 H        -2.6026113258       -3.1613452731       -6.4484555853
 H        -2.2073055055       -4.8943811580       -7.0287040645
 H        -1.6893278036       -4.8052223166       -4.8668305358
 H        -3.2169904885       -5.8337671300       -5.2271333552
 H        -6.4498857516       -4.7962366168       -3.6612088372
 H        -6.6460982283       -4.6495435123       -1.9527224724
 H        -8.2856892219       -6.0703368215       -2.5916464015
 H        -7.2180611040       -7.4386427072       -2.1801360390
 H        -9.4190724964       -9.4244665919       -6.7012849402
 H        -8.2144679775      -10.7547510529       -6.6692272591
 H        -8.6606598564      -10.5355786896       -8.9856938466
 H        -6.9745814338       -9.8991361616       -8.6745548392
 H       -12.1393733386       -7.7607381547       -7.3767704469
 H       -12.3170426417       -6.4339134361       -8.3892499867
 H       -11.1328378195       -4.9457419872       -6.7039925757
 H       -11.0277680519       -6.2172821639       -5.5862163861
 H       -12.9913036313       -5.8166380737       -2.0164347720
 H       -13.2186054597       -4.0801305709       -1.6685391974
 H       -10.7957476542       -3.9165769792       -1.7323434925
 H       -10.6972549914       -5.7849595076       -2.0676043941
 H       -10.2618650717       -7.6688767167       -0.8406695405
 H       -10.3826784936       -7.8611937007        0.8715016974
 H        -8.8225436091       -8.3183635941        0.1131001874
 H        -9.3538551607       -2.8034903952        0.9925175225
 H        -9.4016315370       -3.3412510546       -0.6485308475
 H        -8.0497924698       -3.8329751040        0.5292522244
 H        -9.6404510351       -5.9274674267        2.7521880761
 H       -10.9046996909       -4.7406511965        2.6277595312
 H        -9.2619102269       -4.1792201163        2.6441624864
 H       -14.2852402894       -3.0661825764       -4.1376351034
 H       -14.7884849141       -3.3029579267       -5.8522825512
 H       -13.1842432297       -2.7707573261       -5.4723622770
 H       -14.6108312324       -6.4989958882       -3.7216536826
 H       -15.5848091136       -5.5208295928       -4.7604789249
 H       -15.1667259020       -5.0491433135       -3.1482445265
 H        -9.6131927261       -7.4737878004      -11.5385541447
 H       -10.1256185224       -6.0983771244      -10.7246942321
 H       -11.3495249031       -7.2518573781      -11.1740843263
 H       -10.9674954368       -9.9549083474      -10.0771882117
 H       -12.0998162043       -8.9649063197       -9.2343610857
 H       -10.8988419720       -9.9227875105       -8.3993441050
 H        -5.1438825391       -8.4124385496       -4.0412160194
 H        -5.7924300234      -10.1056930269       -4.3483024441
 H        -6.1643425475       -9.2011403736       -2.9733579814
 H        -8.3173979104       -9.1245589354       -2.7883941708
 H        -8.2009201887      -10.2949177025       -4.0072502038
 H        -9.4419646826       -9.1140017485       -4.3584432546
 H        -1.5353885053       -4.8258565722       -2.1556888130
 H        -2.1891139897       -6.2657195176       -2.8549899338
 H        -2.4573395300       -5.9583456112       -1.0533741305
 H        -4.6300626563       -2.8404665140       -1.8205859053
 H        -3.4305636300       -3.4155123292       -0.7133855774
 H        -5.0029334427       -4.1369488041       -0.6183456291
 H        -4.6926570173       -1.7912519643       -6.2096240690
 H        -5.2764485484       -1.1154151171       -7.5333099180
 H        -3.7357005681       -1.8972133001       -7.7769560093
 H        -6.2604826349       -2.9520189940       -5.6035950654
 H        -6.9441959367       -4.4223396120       -6.4999081421
 H        -7.3610918010       -2.8270480947       -7.0717585214
 H        -2.9719188571       -4.6439798778      -13.8816412204
 H        -2.2740220068       -3.3951021410      -14.8873170705
 H        -3.9339650154       -3.2465364080      -14.2653252098
 H        -1.0998351459       -4.3894219601      -12.3498877374
 H        -0.8336361147       -3.0219536235      -11.2488462161
 H        -0.1767657667       -2.9603800854      -12.7959008935
 H         2.5778084622       -1.1754328116      -13.3417592122
 H         2.5732622117       -0.1232327327      -11.9978418958
 H         3.9545332178        0.0033781062      -12.9038078434
 H         3.7837182964        2.1657934708      -12.4772339865
 H         2.1266876453        2.3893501228      -12.0397286941
 H         2.8319995392        3.1566045315      -13.5087201759
 H         6.5568247876        1.5144517300      -19.2368596545
 H         6.3472092570       -0.0143751340      -20.0449943698
 H         7.9791775066        0.2810055688      -19.4469192152
 H         8.2064856628       -1.2711733786      -17.5401934602
 H         6.8354738188       -2.1561498911      -18.2484810177
 H         6.7628201218       -1.8271204821      -16.5297060364
 H         9.0804187351        5.6203034464      -17.2913228659
 H         8.5886009683        7.3288049704      -17.5743475219
 H         7.8202126708        5.9823398303      -18.5767850242
 H         6.5641915745        6.8334184650      -14.5304468963
 H         7.5906002243        8.0437957406      -15.3450520896
 H         8.1353252780        6.4771960712      -14.7272726057
 H         1.8978021640        3.8630414356      -17.3392615248
 H         2.8838019040        4.3679346651      -18.5895882243
 H         1.1676952229        4.0716286318      -18.9883158659
 H         1.2923820667        7.7828240914      -19.2649550161
 H         1.1243668186        6.1622220499      -19.7941306263
 H         2.7233526772        6.9824371732      -19.6371829743
 H        -3.0029583837        7.9638280297      -12.3911529979
 H        -3.2922804585        7.4014675306      -14.0742689214
 H        -2.5452546992        9.0758433594      -13.6251443336
 H         0.7217199175        7.5425571139      -12.1374420448
 H        -0.6908739443        8.0675216798      -11.5230164296
 H         0.2024833966        9.0558503920      -12.7405516011
 Na        0.9036871168        3.7104835245      -15.2869205515
 Na       -6.8978161118       -6.3215838239       -7.9102938780
