232

 C        -2.0528481373        5.2850864803      -12.2729795257
 C        -1.0157451703        5.8531482851      -13.2367936173
 O        -0.0360229494        5.2127973273      -13.5228573260
 C        -1.0999344305        7.4135678402      -13.5136361883
 C        -0.5823109044        7.7891145118      -14.9653604680
 O         0.5519324215        8.2505110972      -15.1733895396
 C        -1.5797813490        7.6980479336      -16.2286095218
 C        -0.7665094890        7.4149635007      -17.5078464662
 C        -0.0416419037        6.0972128959      -17.3521387647
 O        -0.4024143981        5.1581528875      -16.6662622205
 C         1.3938736707        5.9687871308      -17.9399447763
 C         2.4443488338        6.4434175690      -16.7355786193
 O         2.4022264679        5.7393762035      -15.6983336426
 C         3.3333734494        7.6198614515      -16.8271012975
 C         4.7258204169        7.3282481075      -16.2161832440
 C         5.7051644557        6.6362419113      -17.1663593963
 O         5.4351191941        6.4506141690      -18.3502266744
 C         7.0223168492        6.1680690603      -16.5056455842
 C         6.9224760220        4.6659079330      -16.0423645469
 O         6.8991028901        4.4327187899      -14.8548456254
 C         6.7453176859        3.5670972169      -17.1541661967
 C         6.0871154517        2.2973100516      -16.5771116211
 C         6.7793192450        0.9312212267      -16.6113591217
 O         7.4965129491        0.4647216939      -15.7550666374
 C         6.3042630010       -0.0293995983      -17.7579011362
 C         4.8365225566       -0.1954732856      -17.8331123332
 O         4.1335370675        0.0333334606      -18.7743238159
 C         4.3258480420       -0.6357139995      -16.3937790772
 C         2.7993144167       -0.2421823079      -16.0878398905
 C         2.5644713263        1.0540577308      -15.3172695673
 O         2.4848997215        2.1142447471      -15.8686837340
 C         2.1401126054        0.9959738494      -13.6082390201
 C         0.6093255550        0.9037708142      -13.6446148227
 O         0.0553385986        1.8206453215      -14.1822993606
 C        -0.1294731512       -0.2134029780      -12.9314194943
 C        -1.5209434311       -0.5948763013      -13.5892534438
 C        -2.4615724261       -1.3434976135      -12.5843261380
 O        -3.2166854777       -0.6392727577      -11.9333564823
 C        -2.5406155742       -2.8431922211      -12.5037631227
 C        -3.5024297321       -3.2758514741      -11.4357500217
 O        -3.1167862266       -3.9326600529      -10.5560310773
 C        -4.9684495885       -2.9129128822      -11.4909358527
 C        -5.4917653505       -2.4988728047      -10.0655378112
 C        -5.6602987398       -3.6500351716       -9.0142442001
 O        -6.2055026452       -4.6768923283       -9.3971411619
 C        -5.2093122289       -3.3164407775       -7.5403571594
 C        -4.2282159909       -4.5269103568       -7.0630607269
 O        -4.6622077329       -5.6289959573       -7.1845956987
 C        -2.9179449614       -4.1342850427       -6.4582090807
 C        -2.6234079165       -4.8247279247       -5.0125052050
 C        -3.4966564673       -4.1047133716       -3.9253954104
 O        -3.9791094973       -3.0143738457       -4.1101192001
 C        -3.7018502051       -4.7246681112       -2.5790710788
 C        -4.8758790609       -5.8266873507       -2.6955242511
 O        -4.6391527356       -6.9591290822       -2.6048022740
 C        -6.3773420180       -5.2584730973       -2.7556989968
 C        -7.3330074290       -6.4075524021       -2.7775979717
 C        -7.3507648553       -7.0270994826       -4.1877001869
 O        -7.2969362393       -6.1737803254       -5.0916273727
 C        -7.3156748542       -8.6149549919       -4.5569050801
 C        -7.2492990969       -8.7740875615       -6.1746514640
 O        -6.4017178575       -8.1546487200       -6.8013629985
 C        -8.3260539686       -9.6366503170       -6.8771631078
 C        -8.2681672069       -9.7490303983       -8.3964837680
 C        -8.6077351437       -8.4544037646       -9.2639925706
 O        -7.7267374597       -7.6276634546       -9.5551851980
 C       -10.0287177262       -8.0150208204       -9.5110127978
 C       -10.2965231486       -6.9959934921       -8.2921052319
 O        -9.3388474480       -6.4598737973       -7.7216796227
 C       -11.6871576339       -6.7841024692       -7.7197571840
 C       -11.7160495089       -5.8802851336       -6.5103265865
 C       -13.1658297688       -5.5406607213       -6.0554813996
 O       -14.0327634321       -5.9974888701       -6.7209887080
 C       -13.5936509785       -4.6582058805       -4.7149944333
 C       -12.4557160119       -4.5244758678       -3.6899659653
 O       -11.3015635635       -4.1958123841       -4.0574338805
 C       -12.5990075263       -4.7257640622       -2.1262070472
 C       -11.2238728674       -4.7967733916       -1.4379236157
 C       -11.2478857327       -5.1134906749        0.0865307229
 O       -12.1630384620       -5.5731011560        0.6638659817
 C        -9.7735091136       -4.9699135839        0.7600038885
 C        -8.9099630797       -6.2623041767        0.4223494518
 O        -7.7354526695       -6.1849683540        0.1842157573
 C        -9.8130416963       -7.4924325090        0.1521430810
 C        -8.8508018018       -3.7088637138        0.2893899762
 C        -9.9855317039       -5.0125394943        2.3747403049
 C       -14.0295537638       -3.2482518611       -5.2771488339
 C       -14.7691511180       -5.3486154527       -4.0973183623
 C       -10.3409908934       -7.2409320417      -10.7621019136
 C       -10.8855362327       -9.3350106904       -9.4000829308
 C        -5.8976266880       -9.0304403388       -4.0644765608
 C        -8.5589988900       -9.3877201456       -3.9797117326
 C        -2.3871004086       -5.4095780093       -2.1538300231
 C        -4.0394280473       -3.7582765118       -1.5324302600
 C        -4.6088601811       -1.8702865250       -7.3777983007
 C        -6.4235539491       -3.3613198990       -6.5535426479
 C        -3.0571451611       -3.3964348391      -13.8503713499
 C        -1.0223130829       -3.4040797079      -12.3436266662
 C         2.7901003201       -0.2065379044      -12.9302295811
 C         2.5628202446        2.3263881428      -12.9754592173
 C         6.8519523359        0.6838119901      -19.0798955072
 C         7.0056238689       -1.3996639794      -17.5329135366
 C         8.0232618583        6.2967025177      -17.6570692556
 C         7.5430365403        7.0164503283      -15.3458853477
 C         1.8724142957        4.6155473338      -18.1240064282
 C         1.6287758985        6.8227891752      -19.2895439679
 C        -2.4872736422        7.9790843708      -13.3250336632
 C        -0.1265005533        7.8589514650      -12.4471060847
 H        -2.6795000212        4.5962818631      -12.8235199090
 H        -2.6180943264        5.9528976611      -11.6828416497
 H        -1.5113777531        4.5892709909      -11.6970983427
 H        -2.0146051631        8.7082243288      -16.3720192976
 H        -2.3318193608        6.9091438501      -16.0991377450
 H         0.0036663433        8.2241627330      -17.5245401078
 H        -1.3101399393        7.5453111889      -18.4240253481
 H         2.8004282066        8.3544468827      -16.2084136800
 H         3.4867598546        7.9733205976      -17.8429379010
 H         4.5273137092        6.6798509778      -15.3227538048
 H         5.2704548704        8.1943080017      -15.7778023040
 H         7.7255912601        3.4088608097      -17.5610152177
 H         6.0185222636        3.9774065317      -17.8775573668
 H         5.1435393407        2.1764259513      -17.1600015269
 H         5.8675443719        2.4751230450      -15.5024431975
 H         4.9048055344       -0.1394101836      -15.6229670830
 H         4.2805494266       -1.7280473295      -16.3236941679
 H         2.2569929165       -1.0890121465      -15.7524127919
 H         2.3215733407       -0.0163568781      -17.0715401396
 H        -0.1478546977        0.0076210067      -11.8206203111
 H         0.5403834717       -1.0678443152      -12.8946530591
 H        -1.5367845489       -1.2317365983      -14.4335462895
 H        -2.1380874611        0.3314337187      -13.7778444133
 H        -5.6126932497       -3.7819599579      -11.7545938380
 H        -5.3540172536       -2.1793516798      -12.2394937538
 H        -6.4380003655       -2.1437755717      -10.1351638466
 H        -4.8737825849       -1.7431210302       -9.6772725386
 H        -2.9679235340       -3.0629587245       -6.1529329521
 H        -2.0862655489       -4.3807347241       -7.1830083961
 H        -1.5819360028       -4.6820468934       -4.8137366605
 H        -2.9980984267       -5.9155995961       -5.1223726063
 H        -6.4506438875       -4.5850532348       -3.6290995066
 H        -6.4857510573       -4.6004702261       -1.8619601734
 H        -8.2516298765       -6.0064578384       -2.5490223214
 H        -7.0722250908       -7.1796015413       -2.0538568585
 H        -9.3392347126       -9.4020172961       -6.4888054009
 H        -8.1805326413      -10.7412670940       -6.5688732825
 H        -8.9944414443      -10.5022980050       -8.7094659120
 H        -7.2523761523      -10.1544834374       -8.6378698403
 H       -11.9912853859       -7.7636843391       -7.4410943688
 H       -12.4697769589       -6.4744447396       -8.4192502147
 H       -11.2613631147       -4.9355240014       -6.8606521121
 H       -10.9996475119       -6.1899088830       -5.7809833218
 H       -13.2067543172       -5.6464009432       -1.8148899196
 H       -13.0241388346       -3.7694543058       -1.7801854634
 H       -10.7904416555       -3.8399080754       -1.5730867014
 H       -10.6099775717       -5.6047208122       -1.8892588891
 H       -10.3703983851       -7.7873229682       -0.7476963314
 H       -10.5779243851       -7.4333187484        0.9502208051
 H        -9.2431067225       -8.3380595699        0.4713055623
 H        -9.3199438083       -2.8105759604        0.6424066861
 H        -9.0043325997       -3.5887440382       -0.7872441110
 H        -7.8935667084       -3.6816043527        0.6429832439
 H        -9.5073047159       -5.8059376439        2.9054110862
 H       -11.0598795786       -5.0343474885        2.6961020665
 H        -9.5785094274       -4.0377289579        2.7469977086
 H       -14.6264735862       -2.7485057275       -4.4369554413
 H       -14.5773420901       -3.4028939555       -6.1647997966
 H       -13.1451559759       -2.7236110583       -5.5950619834
 H       -14.6541108644       -6.4278810846       -3.7757297373
 H       -15.6011743920       -5.3492365507       -4.7407442504
 H       -15.1819379733       -4.8759657217       -3.2040428582
 H        -9.5827591490       -7.4846624429      -11.5801540945
 H       -10.3228890466       -6.1287256594      -10.8224824246
 H       -11.2917291101       -7.4681539860      -11.2250300819
 H       -10.7098430251      -10.0963233179      -10.0863515960
 H       -11.9583632398       -9.2319826240       -9.4241253103
 H       -10.7778943922       -9.8689194861       -8.4572220081
 H        -5.1005564931       -8.5407644909       -4.5978807254
 H        -5.8602241443      -10.0526607408       -4.2504400070
 H        -5.7256118958       -8.9038682252       -3.0241837039
 H        -8.3115540290       -9.5706461609       -2.9725414683
 H        -8.7043105922      -10.3603847562       -4.3838333030
 H        -9.5447066852       -8.8201901527       -4.1951167107
 H        -1.7271768597       -4.5304787921       -2.0450239748
 H        -1.9496507833       -6.0261815126       -2.9281914312
 H        -2.4826968325       -5.9296092084       -1.2100231350
 H        -4.5951899334       -2.9369747961       -2.0034752525
 H        -3.1902125719       -3.3387925895       -0.9799924257
 H        -4.6817328982       -4.1881476510       -0.6989112910
 H        -4.6915639101       -1.5628562016       -6.3664845622
 H        -5.2048705129       -1.0175546300       -7.7662036097
 H        -3.6414610184       -1.8920280405       -7.8573742479
 H        -6.0671942675       -3.1163811129       -5.5833197191
 H        -7.0161359460       -4.2750314653       -6.5590584631
 H        -7.0876967101       -2.5823837365       -6.9559464108
 H        -3.2426066224       -4.5086006051      -13.8109763698
 H        -2.3572761070       -3.2991432639      -14.7148943985
 H        -4.0417568577       -2.9189429817      -14.1149847591
 H        -1.0524966313       -4.4776603639      -12.3437008605
 H        -0.6083356294       -3.0038227796      -11.4070327831
 H        -0.3173354520       -3.0546529166      -13.0484632425
 H         2.3688958082       -1.0831661660      -13.3303082355
 H         2.5908076897       -0.3186445676      -11.8530648434
 H         3.8311420213       -0.1495866806      -13.0614970332
 H         3.5850810082        2.2497581320      -12.7122364242
 H         2.0045303091        2.5870087365      -12.0392412110
 H         2.5887600103        3.1476190180      -13.7242442327
 H         6.3553828427        1.6833383895      -19.2339664136
 H         6.4458441227        0.0061929117      -19.9160738846
 H         7.8963227010        0.6718709930      -19.1231830023
 H         8.0591662667       -1.2175224094      -17.2746744989
 H         6.9979370692       -2.0578441480      -18.3502541010
 H         6.4607439575       -1.9063433837      -16.6312942442
 H         8.8352530455        5.5608807096      -17.5555501891
 H         8.5018490352        7.2810518308      -17.6230152357
 H         7.5289657592        6.0944618068      -18.5528141738
 H         6.8652243895        7.0325709363      -14.3711491005
 H         7.8248320499        7.9960640154      -15.7059095742
 H         8.4855055786        6.5219576172      -14.9617950535
 H         1.8094641843        4.1616247544      -17.1476751289
 H         3.0059274659        4.6265348417      -18.3691912526
 H         1.3505539668        4.1059656752      -18.8262167921
 H         1.1104145017        7.7509575696      -19.3872244375
 H         1.4167013723        6.1289741185      -20.1134880069
 H         2.6701935244        7.1659754792      -19.2976979533
 H        -2.5821188688        8.2926548008      -12.2268456484
 H        -3.2432278930        7.2035192082      -13.5637582830
 H        -2.5815963814        8.9979101114      -13.8180228394
 H         0.7143477000        7.2874093673      -12.3022730397
 H        -0.6740422151        7.7220115892      -11.5408680591
 H         0.2339245321        8.8211220476      -12.5760319593
 Na        1.0178341586        3.7870017520      -15.0859667870
 Na       -6.7618649278       -6.4038705938       -7.9686594899
