232

 C        -1.9856543562        5.3321048521      -12.1876228744
 C        -0.9389000929        5.8367836332      -13.2999351881
 O         0.0030829199        5.1363832664      -13.7092117707
 C        -1.0707072010        7.3985791224      -13.5229891165
 C        -0.5766204906        7.7644220257      -15.0206254448
 O         0.4647973592        8.3048435151      -15.2211968617
 C        -1.5736476646        7.5891152216      -16.1699026646
 C        -0.8189673691        7.3993662339      -17.4652668821
 C         0.0145082145        6.0726888296      -17.3349295820
 O        -0.4709536000        5.1744208396      -16.6774566059
 C         1.5438520054        5.9170210983      -17.9185704417
 C         2.3511102664        6.4742054098      -16.6684213749
 O         2.3044866328        5.7475718440      -15.6608790117
 C         3.3235401448        7.5363235707      -16.8655620172
 C         4.7132854961        7.4053218435      -16.2281440563
 C         5.6590718401        6.6210695411      -17.1086207912
 O         5.3971329439        6.2893744937      -18.2406510763
 C         7.1413622492        6.1781134877      -16.5831128942
 C         6.9116838392        4.7102575572      -15.9498995968
 O         6.9734615605        4.4495762013      -14.7653296532
 C         6.6525473638        3.5906017676      -17.0224026686
 C         5.9405544107        2.3207090417      -16.5336464530
 C         6.8325215544        0.9512137245      -16.5830993263
 O         7.5580384682        0.6308123930      -15.6780402130
 C         6.4248908411        0.0620842590      -17.7761527141
 C         4.8388411254       -0.1542776841      -17.6560357070
 O         4.0928449794       -0.1081378495      -18.6437204352
 C         4.2416169591       -0.6376268208      -16.3008944037
 C         2.7379006174       -0.2987126095      -16.1072008336
 C         2.5345467628        0.9125746833      -15.2658369668
 O         2.4933356559        2.0700280697      -15.7549303165
 C         2.1690498083        0.8831224802      -13.7950949733
 C         0.4932827091        0.8702992756      -13.6883960752
 O        -0.1190138229        1.7780871733      -14.2180385672
 C        -0.1371725755       -0.2752323955      -12.9826976176
 C        -1.4209984304       -0.5676870576      -13.5975918478
 C        -2.4628183377       -1.2304513350      -12.6148569187
 O        -3.2263000225       -0.6075347789      -11.9029886963
 C        -2.5178901726       -2.8550963444      -12.5275786656
 C        -3.4650146580       -3.3521621607      -11.3353851270
 O        -3.0411273829       -3.9766817249      -10.3298128630
 C        -5.1197087690       -3.0622442034      -11.4196947291
 C        -5.6188597609       -2.4489538874      -10.1121692272
 C        -5.6740298889       -3.5087975542       -8.9990434939
 O        -6.1157181327       -4.6380876067       -9.2388727557
 C        -5.1939652184       -3.2738004528       -7.5900716379
 C        -4.2859398995       -4.4158895182       -7.0201555831
 O        -4.6330740237       -5.5808382198       -6.9888950311
 C        -2.8704402216       -4.0568667523       -6.4248130855
 C        -2.6439990546       -4.7456269819       -5.0260958396
 C        -3.5462421860       -4.1189350298       -4.0480912877
 O        -4.1393032551       -3.0852180966       -4.3066418327
 C        -3.6532357797       -4.7543399255       -2.5473185042
 C        -4.7860239448       -5.8596707044       -2.5646019046
 O        -4.7132063447       -7.0771045128       -2.5556303933
 C        -6.2697346484       -5.2797500408       -2.6604177713
 C        -7.2736892669       -6.4437241308       -2.7507830561
 C        -7.2891061339       -6.9599276680       -4.2438017071
 O        -7.2151446857       -6.2466559708       -5.1749757113
 C        -7.3009801900       -8.5889004755       -4.5985356196
 C        -7.3095344837       -8.6835034133       -6.1131571411
 O        -6.3347613374       -8.2592653299       -6.7032810650
 C        -8.3125056089       -9.6162633385       -6.7973847899
 C        -8.2115660106       -9.7321118582       -8.3691859554
 C        -8.6254583086       -8.4591156533       -9.1892033981
 O        -7.7490504840       -7.8191103853       -9.6788458361
 C       -10.1373121601       -8.0781955452       -9.3974984052
 C       -10.2949032458       -7.0100469606       -8.2217164386
 O        -9.3918325729       -6.3237882321       -7.9326327265
 C       -11.7150575645       -6.7110463244       -7.7188120886
 C       -11.8064424875       -5.7343832797       -6.5478872292
 C       -13.2217239692       -5.5717300281       -6.0921448935
 O       -14.1613138211       -6.0819390562       -6.6131331935
 C       -13.6159295831       -4.6461110349       -4.7986141685
 C       -12.4013540508       -4.4433178887       -3.7987181906
 O       -11.2782289468       -4.2371106760       -4.2062905052
 C       -12.6559170334       -4.5735294715       -2.1770563788
 C       -11.2310928910       -4.6039592637       -1.4141427472
 C       -11.1177118215       -4.9476782793        0.0531179749
 O       -12.0978236182       -5.3349254463        0.7177872498
 C        -9.7433915858       -4.9303017564        0.7726100017
 C        -8.9387393802       -6.3005877666        0.4864248959
 O        -7.7408433423       -6.3852495524        0.3166621352
 C        -9.7895230783       -7.5362711479        0.3446619137
 C        -8.8155650618       -3.8337961182        0.4063076631
 C        -9.9927301419       -5.0022471941        2.3101959472
 C       -13.9526348925       -3.2283535355       -5.3857351761
 C       -14.8626874716       -5.2629808991       -4.1561281163
 C       -10.2746424022       -7.3919465056      -10.8039709885
 C       -11.0814440406       -9.3126486865       -9.5447693518
 C        -5.9419416468       -9.1271309102       -4.1614761773
 C        -8.4736741435       -9.3401157641       -3.9723757510
 C        -2.2932195823       -5.5196959605       -2.1449587469
 C        -3.9648411207       -3.5921209589       -1.6013621713
 C        -4.4853783380       -1.9122988587       -7.4854951780
 C        -6.4170668017       -3.3932600871       -6.6228328118
 C        -3.1680430575       -3.2663379564      -13.8867564087
 C        -1.1879867016       -3.5506047961      -12.3557815789
 C         2.8377632410       -0.3047210720      -12.9944784228
 C         2.4623589734        2.2896654423      -13.0607909039
 C         6.8144353855        0.7804819191      -19.1254942675
 C         7.0193613090       -1.4276007050      -17.6805392164
 C         8.1333631450        6.2521204428      -17.9149109715
 C         7.7197482186        7.0128872398      -15.4490494371
 C         1.9032627733        4.5130524597      -18.2940369878
 C         1.5404249487        6.8240159357      -19.2460041921
 C        -2.4443561971        7.9664721374      -13.3113387551
 C         0.0028437194        7.8996604155      -12.4780045543
 H        -2.9840913804        5.2807929180      -12.6413178606
 H        -2.0221196671        5.9906325107      -11.3222356240
 H        -1.8735108699        4.3265980545      -11.8295279900
 H        -2.1721293047        8.5140711744      -16.2203201664
 H        -2.1830902906        6.6960556892      -16.0410597187
 H        -0.2770609988        8.2813780237      -17.7047815447
 H        -1.5285650708        7.3240837378      -18.2338230894
 H         2.8652531014        8.4167083299      -16.4382062493
 H         3.4989308620        7.6644145184      -17.9482168502
 H         4.5535584399        6.9826342129      -15.2146750119
 H         5.2365997823        8.3229493554      -16.0369358142
 H         7.6580571312        3.4268004025      -17.4241436157
 H         5.9192357575        4.0313411765      -17.8086458106
 H         5.0791411107        2.2120593366      -17.2127399180
 H         5.5965803882        2.4608639121      -15.5200458796
 H         4.7463943244       -0.2055051609      -15.4291811527
 H         4.2071057049       -1.6931007372      -16.3434106725
 H         2.1916139271       -1.2258662338      -15.8222723123
 H         2.3286767574       -0.0425772154      -16.9904925851
 H        -0.2640293683        0.0836255557      -11.9826364277
 H         0.5366192737       -1.1481424959      -12.7955753586
 H        -1.4052067209       -1.3275169097      -14.3236100045
 H        -1.9284537974        0.3447870936      -14.0201550742
 H        -5.7846595043       -3.8767841851      -11.7406661876
 H        -5.3059678850       -2.2792465804      -12.2327531945
 H        -6.6020355967       -2.0450954529      -10.1514128333
 H        -4.9128093395       -1.6876914230       -9.8591950495
 H        -2.7489067489       -3.0225543422       -6.1340727999
 H        -2.1467066252       -4.4502219688       -7.1305940291
 H        -1.6218074519       -4.5347119855       -4.7294853627
 H        -2.9213374794       -5.7892793285       -5.0459218818
 H        -6.2605170822       -4.4970133637       -3.4958688482
 H        -6.2916499871       -4.6866596219       -1.7071222801
 H        -8.3261087530       -6.0532889117       -2.5157866920
 H        -7.0120981454       -7.1741177344       -2.1024369115
 H        -9.3258825752       -9.2036778384       -6.5826106315
 H        -8.3374217438      -10.5491989960       -6.3670973724
 H        -8.8269324879      -10.5095867224       -8.7750832936
 H        -7.1773057351       -9.8841596104       -8.6396512898
 H       -12.3349059515       -7.5986997002       -7.4009949049
 H       -12.2681503522       -6.3690798775       -8.6075417592
 H       -11.2022436195       -4.8263576853       -6.6874126739
 H       -11.2658731013       -6.2176561469       -5.7482613505
 H       -13.1411879679       -5.6206126233       -2.0838313333
 H       -13.3030776043       -3.7483001398       -1.8589900806
 H       -10.7206714305       -3.6478789654       -1.6131935302
 H       -10.6733984590       -5.3766644066       -1.8660008434
 H       -10.0587496601       -7.6191231459       -0.6867803702
 H       -10.7820307756       -7.4646609658        0.8128609000
 H        -9.3339746866       -8.4458183389        0.5823238723
 H        -9.3680481157       -2.9561258250        0.3126704348
 H        -8.5182824302       -4.0267513804       -0.5900492122
 H        -8.0317747998       -3.6626553274        1.0993142366
 H        -9.2689639236       -5.6218861517        2.8486272001
 H       -10.9689335960       -5.4337815976        2.5262815763
 H        -9.9827625300       -3.9941138718        2.7785704920
 H       -14.6155583048       -2.6185976573       -4.7430591709
 H       -14.4095518311       -3.5289198389       -6.3202112384
 H       -13.0034424809       -2.7566061503       -5.7727692568
 H       -14.7484894695       -6.2496953775       -3.7133198000
 H       -15.7317718194       -5.3839424140       -4.8289119799
 H       -15.3280850452       -4.6305743572       -3.3943253868
 H        -9.5667943524       -7.6721319429      -11.5694541174
 H       -10.1287197580       -6.3161034392      -10.7550208437
 H       -11.2181313703       -7.4439047751      -11.2925639446
 H       -10.6651276524      -10.1229586576      -10.0704035374
 H       -11.9658962007       -9.1226564910       -9.9807580753
 H       -11.3522309780       -9.7831949941       -8.6530065249
 H        -5.1857016864       -8.8731689466       -4.8293408361
 H        -6.0349145810      -10.2244983136       -4.2084499052
 H        -5.6573360376       -8.8867999002       -3.1018112136
 H        -8.1634527105       -9.5638792055       -2.9875288480
 H        -8.7772729541      -10.3436334865       -4.4049179865
 H        -9.3282961747       -8.7512191556       -4.0743163625
 H        -1.5757403108       -4.7663824383       -1.9827592824
 H        -1.9121694201       -6.2457995560       -2.8946106289
 H        -2.4853660330       -6.0669608154       -1.2413106209
 H        -4.8375446230       -3.0126304638       -1.9250190353
 H        -3.0746352655       -2.8800848673       -1.4784950261
 H        -4.1088821298       -3.9165180800       -0.6106728704
 H        -4.2229519506       -1.5916878383       -6.4765421769
 H        -5.2854178816       -1.1661838826       -7.6129113035
 H        -3.7425882360       -1.8017211243       -8.2866202054
 H        -6.0074015571       -3.5299647356       -5.6384980643
 H        -7.0085496818       -4.2086992778       -6.8623910914
 H        -7.0171864654       -2.4842872848       -6.6889912242
 H        -3.4673726881       -4.3308277377      -13.9132322420
 H        -2.5685443224       -3.1693603652      -14.7931900470
 H        -4.1217752509       -2.6651914474      -14.0061187494
 H        -1.2811984374       -4.5797231973      -12.0755215918
 H        -0.6573774739       -2.9678075444      -11.5980094204
 H        -0.4596689283       -3.4303312497      -13.2055376316
 H         2.5286378181       -1.2504183102      -13.2844132494
 H         2.4617510301       -0.2874299162      -11.9166963190
 H         3.9299015295       -0.2202522880      -12.9704849073
 H         3.5276155728        2.4109805816      -12.7837926512
 H         1.8343467621        2.3272835137      -12.1834985198
 H         2.2534769838        3.1590476639      -13.7563681049
 H         6.1715827897        1.6618528681      -19.3418759544
 H         6.6882895376        0.1043895532      -19.9283690429
 H         7.8875112623        1.1056800090      -19.0018106129
 H         8.0375788563       -1.4932441743      -17.3586485012
 H         6.9903248356       -2.0700140651      -18.6366960498
 H         6.3926360835       -1.8770616070      -16.9801164942
 H         8.9805927384        5.6496657987      -17.7054311594
 H         8.4938999601        7.2048842070      -18.0208310680
 H         7.6884660008        5.7737356498      -18.7728877940
 H         7.0814435784        6.9118176279      -14.5420660135
 H         7.6643234630        8.1052436066      -15.8656589527
 H         8.7683465429        6.8121681999      -15.1209957547
 H         1.6549276784        3.8470750011      -17.4082571715
 H         2.9361691136        4.3593092693      -18.5534540183
 H         1.2225543205        4.2701833563      -19.1312574872
 H         1.0553185854        7.8130166947      -19.1550792909
 H         1.2301497357        6.2116894542      -20.1291420528
 H         2.5717581315        7.1543291766      -19.3214382363
 H        -2.3729551712        8.3640141056      -12.2365610536
 H        -3.2387650558        7.2567067293      -13.4073406080
 H        -2.5505474298        8.9428632504      -13.8230507514
 H         1.0691309369        7.5872039327      -12.7185503171
 H        -0.2254589589        7.5359428729      -11.5152149078
 H         0.0588202942        8.9615730904      -12.4920506552
 Na        1.0778695892        3.9966765006      -14.9567858629
 Na       -6.6716780091       -6.3928457578       -7.9537100197
