232

 C        -1.7200752730        5.6569589083      -11.9362721660
 C        -0.9224619993        6.1288885118      -13.1348250747
 O        -0.1329810157        5.4674904660      -13.7775929682
 C        -0.8854277136        7.5987069286      -13.4147912148
 C        -0.5836865206        7.7003413674      -14.9394611739
 O         0.4591491769        8.1310981461      -15.4238485209
 C        -1.6154417922        7.0328028934      -15.8576449072
 C        -1.0148002680        6.8104692971      -17.2854879947
 C         0.0381963370        5.7171196469      -17.3028195093
 O        -0.3553156993        4.6776794241      -16.7331625482
 C         1.4862496703        5.9468858228      -17.9504658139
 C         2.4981614180        6.2265029290      -16.7239770717
 O         2.7448715391        5.3368023669      -15.9994677717
 C         3.2915755375        7.5499502747      -16.8392765844
 C         4.8313045802        7.3359013191      -16.3736511013
 C         5.5964187535        6.3277735806      -17.1953077679
 O         5.0497554405        5.6087869047      -18.0326721022
 C         7.0810484466        6.1843994961      -16.9177143508
 C         6.9202956127        4.8723976051      -16.0135896219
 O         6.9375276869        4.8818258003      -14.7924745289
 C         6.8680952250        3.5365760482      -16.7176896217
 C         6.0696956074        2.4710377916      -15.9809610084
 C         6.7447946509        1.1560816672      -16.3201313804
 O         7.7477668949        0.8910069783      -15.6975703240
 C         6.2852827749        0.1518779396      -17.5335695041
 C         4.8050152405       -0.2029201742      -17.4739530813
 O         4.0789634913       -0.3147557845      -18.3902178012
 C         4.2391539352       -0.7255888219      -16.1012228720
 C         2.7033763500       -0.5573320343      -16.0085708635
 C         2.3878559435        0.7277436707      -15.2958488513
 O         2.5553561489        1.7801258268      -15.8665951222
 C         2.1132980928        0.7464155523      -13.7444491533
 C         0.5006802965        0.8194129727      -13.7655016836
 O        -0.1160485484        1.7060721777      -14.3161945838
 C        -0.4413395464       -0.2694224533      -12.9489805595
 C        -1.7456766847       -0.5855315233      -13.7302178889
 C        -2.5924502931       -1.4253152504      -12.5837463679
 O        -2.8939599970       -0.7687905451      -11.6295838978
 C        -2.8108483961       -2.9743424672      -12.6605375831
 C        -3.6481517388       -3.1061281861      -11.3451698515
 O        -3.0274084738       -3.2322047784      -10.3454458445
 C        -5.2505599128       -2.9789916232      -11.3620413131
 C        -5.8452543871       -2.3806989558      -10.0387017402
 C        -5.8279048889       -3.5575718970       -8.9014601153
 O        -6.0786934806       -4.6885742016       -9.1899844725
 C        -5.3352936236       -3.0608675271       -7.4790470152
 C        -4.4551489460       -4.2688650503       -6.9089640392
 O        -4.8877398204       -5.4038430777       -6.8386636684
 C        -2.9373507189       -4.1169711665       -6.5521229641
 C        -2.5301865614       -4.8045129663       -5.2622984455
 C        -3.5631807050       -4.3820885876       -4.1365661871
 O        -4.6121583126       -3.8250266168       -4.5220514519
 C        -3.3360018224       -4.7554519316       -2.6953031047
 C        -4.5206037557       -5.9480367034       -2.5876681866
 O        -4.0895021130       -7.0126114372       -2.2364242780
 C        -6.0028229400       -5.5822806025       -2.6679601778
 C        -7.0980334381       -6.6261260707       -2.8262908265
 C        -7.0597242454       -7.0057551358       -4.3316966656
 O        -6.7407577027       -6.1733777476       -5.2087299422
 C        -7.3144705819       -8.5640184902       -4.5924452229
 C        -7.3399331717       -8.9688095223       -6.1774681465
 O        -6.2908924192       -8.8468460645       -6.8451085145
 C        -8.6084869429       -9.5477982048       -6.7197276336
 C        -8.4810699286       -9.9008528122       -8.2469546845
 C        -8.6595754282       -8.5807069747       -8.9532531894
 O        -7.6752163474       -7.9164150803       -9.3270775764
 C       -10.0838649042       -8.0507768117       -9.3825822043
 C       -10.3459490865       -6.8338560177       -8.2860091099
 O        -9.3681829087       -6.1717963190       -7.8325989349
 C       -11.7768614217       -6.5402060879       -7.8822962014
 C       -11.8498385405       -5.4976106223       -6.7908078400
 C       -13.0982665638       -5.5322615494       -5.9126462588
 O       -13.8493377782       -6.4899580899       -5.9174088773
 C       -13.2421168005       -4.4291312788       -4.8529357890
 C       -11.9853772939       -4.4218687492       -4.0410775415
 O       -10.8674535450       -4.2708283632       -4.4638686871
 C       -12.1086270075       -4.6693753793       -2.5657833984
 C       -10.8295402569       -4.5150723768       -1.7461016664
 C       -11.1958628076       -4.6178678833       -0.2472823547
 O       -12.2889656640       -4.6065096229        0.1810569681
 C        -9.8718756635       -4.8177410045        0.6894299782
 C        -9.4522797496       -6.3738079894        0.4409614232
 O        -8.3403503361       -6.6731219612        0.0697175902
 C       -10.3966827846       -7.4665210946        0.8964857435
 C        -8.6717713284       -3.8766064922        0.3807812860
 C       -10.2740976037       -4.5271018948        2.2123523291
 C       -13.4217501421       -3.0738882104       -5.6116125916
 C       -14.5254209106       -4.7642909152       -4.0182890560
 C       -10.0722346195       -7.2956732321      -10.7509943948
 C       -11.2497090274       -9.0255261849       -9.1973011919
 C        -6.1032251840       -9.3776928662       -4.0204322056
 C        -8.5469869967       -9.0682930722       -3.8090485933
 C        -1.9449097113       -5.3110209926       -2.3142653651
 C        -3.7250464142       -3.5967371698       -1.8215349799
 C        -4.5037299628       -1.7997536696       -7.4731161118
 C        -6.6692007048       -2.8228741285       -6.6563826266
 C        -3.5968471325       -3.3950006219      -13.9438311735
 C        -1.5223558452       -3.8298322438      -12.5550578407
 C         2.6185616978       -0.4799546293      -12.9941932895
 C         2.6382723927        2.0872007698      -13.1341479448
 C         6.4669940488        1.0593383008      -18.8658981120
 C         7.0706543334       -1.0538044996      -17.8805822180
 C         7.8807722256        5.9586918244      -18.1917795059
 C         7.6735071831        7.2998157352      -15.9300221225
 C         2.1659401910        4.7931583460      -18.6470958183
 C         1.3744926913        7.1400769151      -19.0060710787
 C        -2.2838201007        8.3445485008      -13.0677089655
 C         0.2522013658        8.1117724250      -12.6102154415
 H        -0.9526880780        5.6259274281      -11.2032893529
 H        -2.0990061604        4.6346039508      -11.9589732246
 H        -2.4805509392        6.3097389462      -11.5438191335
 H        -2.5429799633        7.6210653095      -15.8690172314
 H        -1.8466531681        6.0605012279      -15.3945098386
 H        -0.7303213763        7.7385080480      -17.6214715778
 H        -1.7901239022        6.5951377303      -17.9940799165
 H         2.8864366511        8.3964610856      -16.2813079816
 H         3.4856509864        7.8087824320      -17.8741032057
 H         5.0406882680        7.1997863835      -15.3206808376
 H         5.3349959884        8.2924345294      -16.6025345602
 H         7.9636404586        3.1355896776      -16.6976363013
 H         6.6331717695        3.7330331699      -17.7732944067
 H         5.0334446650        2.4879800699      -16.2873083728
 H         6.0666241713        2.6476132025      -14.9055238330
 H         4.8074960405       -0.2194852299      -15.3379713071
 H         4.5363410452       -1.7858076942      -16.1121049182
 H         2.2814390049       -1.3889903001      -15.5093888563
 H         2.4756769375       -0.5299819059      -17.0610834664
 H        -0.7837261213        0.2637681727      -12.0756953640
 H         0.1436816664       -1.1690101303      -12.7207834553
 H        -1.3405744155       -1.2478378855      -14.5742963769
 H        -2.0994309513        0.2702879454      -14.2035620574
 H        -5.6975790971       -3.9905564349      -11.5718490097
 H        -5.6279666225       -2.4016676984      -12.2248422892
 H        -6.8394589929       -1.9963535583      -10.3294081114
 H        -5.2544586946       -1.5470713445       -9.6467158097
 H        -2.6946400124       -3.0746736393       -6.4663547586
 H        -2.3561465327       -4.6625883256       -7.2702669525
 H        -1.5036474800       -4.4510840851       -4.9610646521
 H        -2.4306038094       -5.8267584223       -5.4729572785
 H        -6.0574739538       -4.7672334507       -3.4296339010
 H        -6.0739677777       -4.9891247194       -1.7008834621
 H        -7.9829656492       -6.0772179248       -2.4924404118
 H        -7.0082603870       -7.6489147980       -2.1764593300
 H        -9.3905838094       -8.8280854922       -6.5300534398
 H        -8.9908321544      -10.3918055654       -6.1982843774
 H        -9.1279317881      -10.6728404592       -8.6646077110
 H        -7.4481387989      -10.1229968111       -8.3396238694
 H       -12.3479499925       -7.4602328820       -7.5648286707
 H       -12.2895255847       -6.2341548452       -8.8098571527
 H       -11.5649558035       -4.5595708864       -7.2114041969
 H       -11.0511796685       -5.7779021798       -6.0869166624
 H       -12.5164574786       -5.6776557756       -2.4554588333
 H       -12.9946530929       -4.0172869486       -2.2495405571
 H       -10.1879476949       -3.6711526565       -1.9957904894
 H       -10.1636107978       -5.2879893523       -2.0414027717
 H       -10.5717388264       -7.9532205189       -0.0519354467
 H       -11.3604787884       -7.1982902477        1.1418615721
 H        -9.9932624078       -8.2921951585        1.5014152545
 H        -8.8881056279       -3.0723748033        1.0269678075
 H        -8.6276896076       -3.5182586535       -0.5790546443
 H        -7.7102169312       -4.2955931893        0.5626338349
 H        -9.4865073539       -3.9569269324        2.7782198748
 H       -10.5971146336       -5.4107675876        2.7919466477
 H       -11.0891516560       -3.8260520713        2.2617966953
 H       -13.6302434251       -2.3188841958       -4.8797676787
 H       -14.3749071261       -3.2558578267       -6.2170457722
 H       -12.4836495603       -2.7734249703       -6.1081236246
 H       -14.3818566827       -5.7304851696       -3.5755647306
 H       -15.5481513075       -4.7672590885       -4.3745920021
 H       -14.6035882808       -3.9774474299       -3.2507997955
 H       -10.5625791519       -7.8626493795      -11.5346015181
 H        -9.0703415545       -7.0462892023      -11.0660845067
 H       -10.5968797182       -6.3107345746      -10.7989329023
 H       -11.0933374459       -9.9194086986       -9.7037705415
 H       -12.1379125136       -8.6184160599       -9.6558036187
 H       -11.5605171636       -9.3443934462       -8.2781222661
 H        -5.2349008732       -9.2686144466       -4.7159095768
 H        -6.3093808933      -10.4151744779       -4.0004327953
 H        -5.8655922678       -9.1453056851       -3.0386329519
 H        -8.2838983920       -9.0479531051       -2.7243954906
 H        -8.7515156422      -10.0207344114       -4.1425709959
 H        -9.4543065016       -8.4305571266       -3.8665633379
 H        -1.1875711266       -4.5284996497       -2.4006059556
 H        -1.7726062338       -6.1454924613       -2.9468408106
 H        -1.9431111464       -5.7089266205       -1.2879319677
 H        -4.4694981101       -2.9494436132       -2.3323430524
 H        -2.8958808833       -2.9354084784       -1.6862020064
 H        -4.1523258144       -3.7767434364       -0.7839284974
 H        -3.9836304517       -1.7376296719       -6.4951176330
 H        -5.0915731493       -0.9403794822       -7.7443136462
 H        -3.6277621249       -1.8746767694       -8.1245167895
 H        -6.5033402382       -1.9956908528       -6.0234593551
 H        -6.6887589614       -3.6672926783       -5.9698657620
 H        -7.4947701249       -2.5900735649       -7.2350974193
 H        -3.8374181517       -4.4735734607      -13.7321994236
 H        -2.9344218106       -3.3629510054      -14.8767659371
 H        -4.5318579691       -2.9091181396      -14.2597877561
 H        -1.6742036148       -4.8561113654      -12.9378787187
 H        -1.0590567124       -3.9906805038      -11.5943273990
 H        -0.7933133172       -3.4025293131      -13.2396399727
 H         2.3688932873       -1.5027402593      -13.4683192080
 H         2.3326915454       -0.4177210053      -12.0059283596
 H         3.7200739340       -0.5808761693      -12.9789907202
 H         3.4283781898        2.4643756571      -13.8123720985
 H         2.8984070704        1.9409598598      -12.0712606863
 H         1.8531943756        2.7978905480      -13.0188504179
 H         5.9932510891        2.0103480569      -18.8648325201
 H         6.1206935573        0.3789836190      -19.6811790220
 H         7.4964165429        1.3595800525      -18.9499818319
 H         8.1208829917       -0.8058241308      -18.1613313300
 H         6.6116659595       -1.3560950876      -18.7424215331
 H         7.0395485989       -1.9373283413      -17.1977650569
 H         8.6113457453        5.2486811234      -17.9468676214
 H         8.2959760857        6.8931569722      -18.5846363763
 H         7.2914951082        5.4525980842      -18.9325476333
 H         6.9423985361        7.4654183586      -15.0770831099
 H         7.7187818224        8.2902643462      -16.4006328404
 H         8.7704142116        7.1030254782      -15.6354627730
 H         2.3831752977        4.0455193382      -17.8911453456
 H         3.0015429789        5.2261471694      -19.2748070554
 H         1.5000610396        4.1959423385      -19.3089232597
 H         0.5720486555        7.8523105531      -18.8043040520
 H         1.0951826540        6.7307832487      -19.9771083759
 H         2.3590332001        7.5688304718      -19.2665445454
 H        -2.3840113464        8.6162297575      -12.0254708629
 H        -3.1602869391        7.6199887398      -13.3242051854
 H        -2.5187266066        9.2498887970      -13.6897026970
 H         1.0340055859        7.4549624798      -12.8036273784
 H         0.0584199166        8.3038911106      -11.5329733936
 H         0.5557846176        9.1276020162      -12.9030330656
 Na        1.0588933545        3.7253023715      -15.1998799415
 Na       -7.0326624994       -6.3916254810       -7.6717475377
