232

 C        -0.7048334984        5.6784417561      -11.3920728894
 C        -0.4292630395        5.9135846495      -12.8619005813
 O         0.1237443062        5.1379691710      -13.6267205721
 C        -0.6304405561        7.3883625090      -13.5556751978
 C        -0.5746288982        7.2841937326      -15.0965324305
 O         0.3319776495        7.9096353937      -15.6239413006
 C        -1.7240780458        6.7738135260      -15.9194986907
 C        -1.2334597032        6.6705523730      -17.4469305921
 C        -0.1034776496        5.5533139969      -17.5582660294
 O        -0.3197053860        4.4800129577      -17.1098795635
 C         1.3916782571        6.0019393007      -18.1474725763
 C         2.3395688242        6.1042902649      -16.9402249709
 O         2.3479501832        5.1958104475      -16.1172227694
 C         3.0646628950        7.3402387959      -16.5995492186
 C         4.5154967825        7.0624341985      -16.1787959509
 C         5.3039319435        6.4803637065      -17.3357128987
 O         4.6994283526        6.1292013159      -18.3078150861
 C         6.7738826781        6.0794525135      -17.0757611420
 C         6.8779799588        4.7982932458      -16.1471630978
 O         6.4102181806        4.8373919257      -15.0178875645
 C         7.6141655112        3.4754394509      -16.6774839960
 C         6.7726447186        2.3856679216      -16.0393293125
 C         7.0273901946        0.8654839086      -16.2957792933
 O         7.2062423216        0.1139252317      -15.3451043906
 C         6.4755469728        0.2757141411      -17.5450401193
 C         4.8613330740        0.0362313955      -17.2181423597
 O         4.0658913777        0.4533543899      -18.0108433423
 C         4.4615223498       -0.7075830334      -15.8767607079
 C         2.9657227897       -0.7308714360      -15.7583687920
 C         2.5926071572        0.6010411004      -15.0928610143
 O         2.4332296609        1.5508149669      -15.8184835508
 C         2.2722165782        0.6951161804      -13.5869150344
 C         0.5655219152        0.7672973414      -13.4969564622
 O         0.0571276737        1.6764338605      -14.0990067957
 C        -0.2159798057       -0.1076157884      -12.5997677925
 C        -1.5057523074       -0.6775644843      -13.3531429106
 C        -2.6973644381       -1.1239571433      -12.5834480395
 O        -3.3897843398       -0.4791023019      -11.8508862941
 C        -3.0606653958       -2.7246313364      -12.6349385058
 C        -4.0899829600       -3.0651910975      -11.4372482948
 O        -3.5379703274       -3.6062002439      -10.5135489208
 C        -5.6837900770       -2.7510719412      -11.4804339594
 C        -6.1047490666       -2.4780902619      -10.0473034423
 C        -6.1171441131       -3.5559805070       -8.9542240262
 O        -6.7810776960       -4.6075159097       -9.1396832674
 C        -5.4844947397       -3.2852667927       -7.5594426315
 C        -4.6418515708       -4.4678557229       -7.2469607854
 O        -5.0618812121       -5.6325462226       -7.4376681670
 C        -3.1102519060       -4.2518308231       -6.9469774882
 C        -2.6636891022       -4.6720208053       -5.5296651869
 C        -3.3945503766       -4.0859198056       -4.3131815136
 O        -4.2818323345       -3.2018504584       -4.3593333851
 C        -3.1476438873       -4.7645733597       -2.9188265106
 C        -4.3198207918       -5.9216621795       -2.8417732113
 O        -3.9105183228       -7.0959432836       -2.9263299115
 C        -5.8816185981       -5.7260568665       -2.6814149301
 C        -6.6572475365       -7.0162192182       -2.5771940883
 C        -7.1769198448       -7.4582945905       -4.0224160473
 O        -7.3112403457       -6.5822779652       -4.8804459042
 C        -7.4508414847       -8.9244292738       -4.2951752078
 C        -7.4899539411       -9.0277979181       -5.8254792369
 O        -6.5282064081       -8.4863103052       -6.4342522428
 C        -8.6031212767       -9.7519913073       -6.6169146992
 C        -8.2331193661      -10.0207377115       -8.0536868192
 C        -8.3707516322       -8.6627748257       -8.9286696852
 O        -7.3956241520       -8.0736265029       -9.3983133052
 C        -9.8216495591       -7.9306717731       -9.1795299500
 C       -10.4053827632       -6.7998284867       -8.0975647294
 O        -9.7259224958       -6.2365583288       -7.2650614470
 C       -11.9068179185       -6.5270420480       -8.2184698112
 C       -12.3023359619       -5.1048232428       -7.5589645564
 C       -12.4209287061       -5.3300570479       -6.0468745239
 O       -12.2242974125       -6.4110637053       -5.4894680906
 C       -12.7944731624       -4.0850431271       -5.1963126909
 C       -11.6807409494       -3.8837445532       -4.0328893030
 O       -10.7188474997       -3.2539271706       -4.3700764309
 C       -11.8079546173       -4.5662207848       -2.7167933736
 C       -10.6737925471       -4.2149397197       -1.6866269910
 C       -11.1017484636       -4.1712725119       -0.2140003996
 O       -12.1313812001       -3.6652995382        0.2227029863
 C       -10.0785858313       -4.8498321345        0.8226942203
 C        -9.9517750643       -6.4322516230        0.8560219106
 O        -9.4713253775       -6.9668569667       -0.1120343379
 C       -10.5724864779       -7.3470231014        1.9159405988
 C        -8.6725549594       -4.3110137397        0.3011843167
 C       -10.4573965448       -4.2336308443        2.2522320283
 C       -12.8263004217       -2.7165351652       -6.0442973684
 C       -14.2475067540       -4.2425046973       -4.6259293793
 C        -9.5811605481       -7.0957598743      -10.4221134201
 C       -10.9986113311       -8.9835410837       -9.3809417502
 C        -6.1725683950       -9.7228883453       -3.9817693625
 C        -8.7121843666       -9.5379300900       -3.6516264810
 C        -1.7251494802       -5.4532807967       -2.7269091156
 C        -3.4233495038       -3.7290318963       -1.7921784167
 C        -4.8093647346       -1.8830805941       -7.5440475394
 C        -6.6502826621       -3.3328849295       -6.4445450707
 C        -3.8437692091       -3.0484797146      -13.9357411686
 C        -1.7346123051       -3.5627369606      -12.5054487921
 C         2.8144249939       -0.4750843794      -12.8185918158
 C         2.7674627603        2.0307214498      -13.1095824029
 C         6.5028892288        1.3560324372      -18.6886485889
 C         7.1405195299       -1.0762787599      -17.7857512488
 C         7.5171023079        5.9325377344      -18.4194022280
 C         7.5033536764        7.2324364706      -16.3361983677
 C         1.9681724127        4.7025489431      -18.7310089435
 C         1.3039388222        7.1577712573      -19.1034372598
 C        -1.9002123642        8.2105737291      -13.2280965514
 C         0.5203405914        8.1871441134      -12.9444362226
 H        -1.6661996680        5.2051746198      -11.2629997790
 H        -0.6931720209        6.5951396930      -10.7995752636
 H         0.0018688907        4.9686056740      -10.9567759803
 H        -2.5570247352        7.4482374704      -15.7701211948
 H        -2.0572585380        5.8239782480      -15.5237070157
 H        -1.0303147477        7.7254714483      -17.7515972794
 H        -2.0936840457        6.2652926128      -18.0635064822
 H         2.4909759732        7.7694881776      -15.7868990623
 H         3.0891291746        8.1178622021      -17.3875871399
 H         4.5409485660        6.2487094216      -15.4546769111
 H         5.0132143222        7.9013105790      -15.7804785184
 H         8.6400395929        3.3670513667      -16.3799368522
 H         7.7297429121        3.5473891946      -17.8108714349
 H         5.7641368401        2.6454250812      -16.3949664310
 H         6.7067810245        2.4803784657      -14.9705409708
 H         4.9972126202       -0.2403811647      -15.0188248110
 H         5.1105364460       -1.5483515755      -15.8871987871
 H         2.6400973807       -1.6344232738      -15.0547748563
 H         2.4565539297       -0.7347833161      -16.7065263198
 H        -0.6521705777        0.5561793449      -11.8960921717
 H         0.5515642788       -0.7975358037      -12.1742607321
 H        -1.1204536688       -1.3492072726      -14.0715302193
 H        -1.9899371613        0.1393692836      -13.9412618560
 H        -6.1826647835       -3.6525104254      -11.7818979771
 H        -5.8615667611       -1.9487914782      -12.2029416302
 H        -7.2978196751       -2.2981785636      -10.0331620181
 H        -5.6722693789       -1.5269634770       -9.6438935005
 H        -2.7392913191       -3.2537998233       -7.2026898480
 H        -2.4638877174       -4.7634559290       -7.6162083747
 H        -1.6286853572       -4.6497505550       -5.3095046820
 H        -2.6741933867       -5.7689308592       -5.4765208157
 H        -6.1433868302       -5.0485438163       -3.5031681280
 H        -5.9060997142       -5.1030597369       -1.8050368770
 H        -7.6430766097       -6.7719866234       -2.1757281421
 H        -6.2198812426       -7.7991907832       -1.9762177220
 H        -9.4797788653       -9.0835148003       -6.8418652814
 H        -8.9422474855      -10.6345562969       -6.1404519590
 H        -8.7196931077      -10.8264537309       -8.5378456116
 H        -7.1871953773      -10.2800697467       -8.0561245331
 H       -12.5172122686       -7.3315954365       -7.7264541902
 H       -12.1547654805       -6.4511587215       -9.3200809278
 H       -13.2881414606       -4.7144550496       -7.9352113054
 H       -11.5584055168       -4.3362199880       -7.8442999216
 H       -11.9127829605       -5.6468344087       -2.8951951583
 H       -12.7366029900       -4.3760071109       -2.2907383906
 H       -10.3554202074       -3.1385775366       -1.7327378123
 H        -9.6727205797       -4.7209614586       -1.7084800611
 H       -10.2637479210       -8.3365973549        1.6997195131
 H       -11.6274853594       -7.3498800480        1.9563091024
 H       -10.2793408062       -7.0897308233        2.9175119758
 H        -8.6955456662       -3.4510633869       -0.2914603872
 H        -8.3082764843       -5.0685611810       -0.2882337058
 H        -8.0326916489       -4.2012272383        1.2040835225
 H        -9.8564236276       -4.8292899140        3.0079296280
 H       -11.4865378566       -4.2944748423        2.5735396269
 H       -10.1709702408       -3.1731880931        2.3604701098
 H       -13.0692915492       -2.0609516412       -5.2259810438
 H       -13.6844235620       -2.7030381946       -6.7431830297
 H       -11.7771462790       -2.4750528530       -6.4219742958
 H       -14.4897330557       -5.1234773764       -4.0815226457
 H       -14.8902845089       -4.2161823001       -5.5467447505
 H       -14.4724895650       -3.4636560452       -3.9092603126
 H        -9.0864095345       -7.6401564412      -11.1698760522
 H        -8.9004891689       -6.3204530955      -10.1712704450
 H       -10.5363850014       -6.7214303658      -10.7966735742
 H       -10.6907252115       -9.8508079862       -9.9550210557
 H       -11.7066454923       -8.5091802798      -10.0460711410
 H       -11.5056772550       -9.2657500793       -8.4889005818
 H        -5.3712946830       -9.0141633885       -4.2625205350
 H        -6.0145929513      -10.6848724986       -4.4971594398
 H        -6.0318450419       -9.8604685100       -2.9198048279
 H        -8.7944557202       -9.6518901060       -2.5645470662
 H        -8.7715334903      -10.6167093396       -3.9784591919
 H        -9.5183949344       -8.9835088599       -3.9569391341
 H        -0.9246246278       -4.7693883880       -2.6756017767
 H        -1.6380502930       -6.0162575180       -3.6758832713
 H        -1.6721902160       -6.0946381390       -1.8658424494
 H        -4.3703094526       -3.8621495721       -1.2634315123
 H        -3.5446072654       -2.6643773453       -2.1707356820
 H        -2.7297269612       -3.7387765500       -1.0043761317
 H        -4.3642418578       -1.6799619216       -6.5617637662
 H        -5.3796088235       -0.9604398981       -7.7164165215
 H        -3.9783877397       -1.9075481958       -8.2983769603
 H        -6.1427663855       -3.6671352426       -5.5590742792
 H        -7.4132112961       -3.9743085835       -6.7385411020
 H        -7.0159563653       -2.3449435797       -6.2751418641
 H        -4.3009807779       -4.0658092508      -14.0423323719
 H        -3.1573215278       -2.9347007591      -14.7855051465
 H        -4.7420036086       -2.3628105846      -14.0152579115
 H        -1.9499896613       -4.6013043858      -12.6465791798
 H        -1.1988844289       -3.5596209499      -11.5566592837
 H        -0.9790801090       -3.3650653601      -13.3218055534
 H         2.3146955539       -1.4802309009      -13.0019001600
 H         2.8082805933       -0.3736794335      -11.7489815238
 H         3.9074617440       -0.6239644674      -13.0345611163
 H         3.8258450167        1.9195636885      -12.6994728909
 H         2.2881656090        2.3661903720      -12.2000576417
 H         2.7053951614        2.7788398414      -13.9523401745
 H         6.1503537588        2.3337120868      -18.5187483011
 H         5.9301116834        0.9861301197      -19.4594783502
 H         7.5334994001        1.2735037169      -19.1356114811
 H         7.9622917590       -1.0109943228      -18.4905934766
 H         6.4430468591       -1.9060329395      -18.0041514215
 H         7.5641439522       -1.3124579182      -16.8784043466
 H         8.5456823354        5.7298452711      -18.3109549626
 H         7.4530895605        6.8127656561      -18.9796333934
 H         6.9659152728        5.2633818254      -19.0971638551
 H         7.2240534720        7.2086399037      -15.3353342925
 H         7.3489503385        8.2194580487      -16.7370457286
 H         8.5551324166        6.9716454290      -16.2410361738
 H         2.1767732346        3.9238020955      -18.0136129955
 H         2.9079814224        4.9813996074      -19.1093148471
 H         1.3091876677        4.3164277816      -19.5991635601
 H         0.4607197116        7.8660301936      -18.9011757967
 H         1.0044295244        6.6390451241      -20.0513289845
 H         2.1281468651        7.8472811588      -19.3047379405
 H        -1.7573411598        8.6886718114      -12.3106229098
 H        -2.7221551143        7.5563409743      -12.9147515441
 H        -2.3223556773        8.8905398032      -13.9388945905
 H         1.4023606391        8.1025587407      -13.6385540646
 H         0.8109240821        7.7165239659      -11.9542176918
 H         0.3120006408        9.3479318605      -12.8364601742
 Na        1.0006239098        3.4721442428      -15.5337047556
 Na       -7.3351183065       -6.2481150175       -7.3358585050
