232

 C        -0.5075186106        5.6279793065      -11.4939692395
 C        -0.3204204801        5.9215271987      -12.9916673812
 O         0.0722332336        4.9837261771      -13.6866015502
 C        -0.5387373663        7.3729830289      -13.4728207398
 C        -0.6204490598        7.3730973458      -15.0941870938
 O         0.3631498416        7.7798999458      -15.6975914043
 C        -1.7546020324        6.7779613594      -15.9314715582
 C        -1.3124332150        6.5131998521      -17.4137357508
 C        -0.1822647957        5.5470469624      -17.5191851084
 O        -0.3581715290        4.4079910937      -17.3241103921
 C         1.2654557538        5.9153572913      -18.1495427074
 C         2.1648988564        6.1485363928      -16.7447324925
 O         2.3160770814        5.1781234066      -16.0034383940
 C         3.0419582217        7.4256408426      -16.3780819596
 C         4.6139306302        7.1351492308      -16.1838006867
 C         5.2746751292        6.4053804597      -17.3552273993
 O         4.7102484372        6.0970022916      -18.3971164086
 C         6.8180701641        6.0675790581      -17.1846386166
 C         6.8677931823        4.8201732525      -16.2634897976
 O         6.2987275845        4.7865936974      -15.1736194689
 C         7.5702732671        3.5183596125      -16.5999906233
 C         6.7457872464        2.3886256724      -15.9342002688
 C         6.9623969637        0.9039807863      -16.1546667740
 O         7.3464010392        0.1969366351      -15.2368952661
 C         6.4421114791        0.2158643050      -17.5093421145
 C         4.9507486886        0.1091014040      -17.2661608476
 O         4.0636114257        0.6224510525      -17.8866748253
 C         4.5473792857       -0.6938642755      -15.9396441002
 C         3.0181083383       -0.7794508658      -15.7085164660
 C         2.4647013500        0.5455246897      -15.1755356830
 O         2.5479059081        1.5659377147      -15.8413163870
 C         2.2016622824        0.6965324573      -13.5857558629
 C         0.6849816979        0.8117113748      -13.4231192080
 O         0.0549078217        1.6252928237      -14.0634645485
 C        -0.2420752616       -0.1838013255      -12.4439897997
 C        -1.4955396625       -0.6015123071      -13.3055515273
 C        -2.7583487879       -1.1478345320      -12.4197094620
 O        -3.5612624256       -0.4379458042      -11.8907677120
 C        -3.0429727058       -2.7369322304      -12.6240565737
 C        -4.0624943912       -3.0840335513      -11.3653919701
 O        -3.7510250751       -3.6581067355      -10.3763490108
 C        -5.5701324292       -2.7585254615      -11.4684690881
 C        -6.2711656742       -2.4601038291      -10.0412018172
 C        -6.3067346237       -3.5453469329       -8.9624009496
 O        -6.9074100170       -4.5564861743       -9.1485525037
 C        -5.5440738300       -3.3072692022       -7.5178524135
 C        -4.6359025151       -4.5293226869       -7.3635930966
 O        -5.0846973169       -5.6084771714       -7.4463275615
 C        -3.1521061516       -4.3898479600       -6.9796751190
 C        -2.6934613448       -4.6959564111       -5.5518672261
 C        -3.3878607005       -4.0800266657       -4.2791500166
 O        -4.2302750892       -3.1971255466       -4.3410321207
 C        -3.1815988290       -4.7968457795       -2.9469777259
 C        -4.2932239301       -6.0554400990       -2.9374714286
 O        -3.9028238075       -7.1258629599       -3.1625867827
 C        -5.8134699295       -5.7283931350       -2.6875942241
 C        -6.6959140809       -6.9812100575       -2.6410736357
 C        -7.2337924495       -7.4083444180       -4.0755214413
 O        -7.3703105326       -6.5012952965       -4.9143397464
 C        -7.3835497917       -8.9768870026       -4.3241045030
 C        -7.4793783957       -9.1071726805       -5.8378967029
 O        -6.6249990785       -8.5374901921       -6.5136024036
 C        -8.6609087292       -9.7293715292       -6.5188207280
 C        -8.2333832359       -9.8179176297       -8.0357123004
 C        -8.4064888054       -8.4969511414       -8.7717479807
 O        -7.3787480018       -8.0847922214       -9.2798060648
 C        -9.7850500549       -7.8731793873       -9.1261325973
 C       -10.3572672306       -6.8755156578       -8.0702467353
 O        -9.6626300675       -6.1868677465       -7.2981398225
 C       -11.8260572914       -6.5439938053       -8.1708554902
 C       -12.3108730862       -5.1961632656       -7.5648174637
 C       -12.1975191684       -5.2639624681       -6.0826426730
 O       -12.0369511851       -6.3502714085       -5.5099742921
 C       -12.6882168098       -3.9159757130       -5.2243016907
 C       -11.6137109856       -3.6665450600       -4.1056559162
 O       -10.6708696659       -2.9894493644       -4.4370067161
 C       -11.8209487503       -4.3823403720       -2.7680248556
 C       -10.7143905047       -4.2140213067       -1.7235835034
 C       -11.1874798879       -4.1133388058       -0.1800917300
 O       -12.1145002269       -3.5463780429        0.1980858095
 C       -10.0233672501       -4.8729717461        0.8188850967
 C       -10.1149789308       -6.4627393508        0.8101883665
 O        -9.6387875745       -7.1218670013       -0.1032100277
 C       -10.5649815547       -7.2307923336        2.1548393971
 C        -8.6859570966       -4.3630202254        0.4833580145
 C       -10.3297529288       -4.2770663662        2.2691181892
 C       -12.6869722553       -2.7283736455       -6.1973505601
 C       -14.1438032597       -4.2722551650       -4.6852171244
 C        -9.6786045858       -7.0436228122      -10.4738145636
 C       -10.7647581676       -9.0333719801       -9.4994346021
 C        -6.1599787691       -9.8482378865       -3.7802323626
 C        -8.6264538603       -9.5188147629       -3.6034298194
 C        -1.7521702796       -5.3846015752       -2.7926721412
 C        -3.3419948625       -3.7503029153       -1.7575055087
 C        -4.9183176048       -1.9456278595       -7.4398444521
 C        -6.6792330302       -3.3444097611       -6.4092432332
 C        -3.7360481703       -2.9145977053      -13.9935023926
 C        -1.8512167345       -3.5457522489      -12.6093392066
 C         2.7512713240       -0.5092421014      -12.7580386655
 C         2.7884481329        2.0988857685      -13.1114029381
 C         6.5692798176        1.3376743115      -18.6506686243
 C         6.9822933222       -1.1373597632      -17.8780078508
 C         7.6330291815        5.8471146438      -18.5153236262
 C         7.5676558496        7.2992546188      -16.3445678692
 C         1.7920235410        4.6632403613      -18.9144473576
 C         1.3888165478        7.0844023815      -19.2085500634
 C        -1.9588271822        8.0146143290      -12.9654202135
 C         0.6840653603        8.2754454793      -13.0794697540
 H        -1.5524817369        5.4617979056      -11.2476469323
 H        -0.1257547717        6.4427785379      -10.8119926666
 H        -0.0228576845        4.6627374384      -11.2178121851
 H        -2.6040221351        7.4551253330      -15.8813673315
 H        -2.1027389533        5.8479989366      -15.4584347847
 H        -1.0665851821        7.4660737121      -17.8556496118
 H        -2.1931994382        5.9901252043      -17.9857763974
 H         2.6637207728        7.9708331392      -15.5179760457
 H         3.0142748235        8.1845045488      -17.1762302067
 H         4.8808528762        6.5257699621      -15.3082663213
 H         5.1544972416        8.0692938990      -16.1230554416
 H         8.5129475288        3.4716361302      -16.1189953183
 H         7.8318041261        3.5017326430      -17.6199518789
 H         5.7054905918        2.6086849205      -16.2131884128
 H         6.7643111799        2.4974657493      -14.8376626490
 H         5.2341715008       -0.3780673685      -15.1275030209
 H         5.0810591999       -1.6485368445      -16.0856803316
 H         2.7801404310       -1.5266941843      -14.9084994181
 H         2.5656214861       -1.1142337469      -16.7220257293
 H        -0.6063928145        0.3042303337      -11.5515786693
 H         0.4427847511       -1.0884447922      -12.2387618791
 H        -1.0420393443       -1.3251213856      -14.0398111795
 H        -1.9305664466        0.2145498074      -13.8662188239
 H        -6.0120655948       -3.6736782335      -11.8368625511
 H        -5.6972063309       -1.9615043017      -12.1952302274
 H        -7.2898383412       -2.2530511709      -10.2318203602
 H        -5.8726163241       -1.5750384684       -9.5694788539
 H        -2.6710496036       -3.4575650422       -7.4072261568
 H        -2.4921497441       -5.0450986403       -7.5613633161
 H        -1.5705882671       -4.6123618489       -5.3966877159
 H        -2.6366389426       -5.7676091519       -5.5048367005
 H        -6.0776747192       -4.9561488584       -3.3509413987
 H        -5.7131781066       -5.2413815884       -1.7564878844
 H        -7.4251883792       -7.0046796583       -1.9792123261
 H        -5.9774357859       -7.8191642946       -2.4303324937
 H        -9.6589567873       -9.1259762600       -6.5086849175
 H        -8.7985512033      -10.7205404923       -6.0967138576
 H        -8.6887561402      -10.5773256395       -8.7012089430
 H        -7.1669162006      -10.0381352981       -8.0610327552
 H       -12.4175071251       -7.3993674517       -7.8103445661
 H       -12.0039101767       -6.3793357804       -9.2146466423
 H       -13.3695153532       -4.9643846722       -7.8306972392
 H       -11.6888684274       -4.4101894995       -8.0679638492
 H       -11.8719200865       -5.4298397032       -3.0424833925
 H       -12.7916178989       -4.2349806337       -2.3001347967
 H       -10.2308338566       -3.1572765798       -1.8008957323
 H        -9.9166008807       -4.8699037704       -1.7790084642
 H       -10.3668943924       -8.2942420273        2.0702522587
 H       -11.5744329745       -7.1279928751        2.4150903487
 H       -10.0668211542       -6.8278424954        3.0530914006
 H        -8.8003304440       -3.2734682738        0.2503910870
 H        -8.2332542830       -4.8182960992       -0.3722624552
 H        -8.1063880508       -4.4801972689        1.4081716858
 H        -9.5122127977       -4.4035905990        3.0224256314
 H       -11.1911102872       -4.7791270301        2.6702575627
 H       -10.6329762163       -3.2769226189        2.2105992281
 H       -13.1574869741       -1.9992774906       -5.6073325017
 H       -13.3631752520       -2.9909013325       -7.0666716823
 H       -11.6576975516       -2.4687846334       -6.4188317192
 H       -14.0318908249       -5.1482805235       -4.0956087387
 H       -14.8339272473       -4.5412349035       -5.5143433291
 H       -14.5529557224       -3.6064698809       -3.9315069884
 H        -9.8585267474       -7.7535831903      -11.2566801417
 H        -8.6807399664       -6.7022976340      -10.5887093221
 H       -10.4503305830       -6.2682926389      -10.5047439058
 H       -10.1808279696       -9.5804885753      -10.2626496477
 H       -11.5636332467       -8.5790882297      -10.2092388514
 H       -11.1682825340       -9.7178267023       -8.7296727775
 H        -5.1859766510       -9.3920259465       -4.2215359241
 H        -6.2431062445      -10.8955556014       -4.1793291063
 H        -6.0084376853       -9.8688373565       -2.6911353067
 H        -8.5413538303       -9.2308019722       -2.5138568853
 H        -8.6858035246      -10.5540197744       -3.4977265007
 H        -9.5898406313       -9.0698365204       -3.9802242994
 H        -1.0406706056       -4.5850425072       -2.6921026501
 H        -1.5569808103       -5.7828946881       -3.7482287193
 H        -1.6020750285       -6.1291225104       -2.0058557805
 H        -4.1348448507       -3.9281537870       -1.0324205826
 H        -3.4683477229       -2.7526304993       -2.0344157366
 H        -2.4264994474       -3.8226490595       -1.1471551026
 H        -4.2132717357       -2.0161932571       -6.5944970070
 H        -5.3994859077       -1.0550799680       -7.1840567956
 H        -4.3338643199       -1.7771918055       -8.3210798517
 H        -6.1619413162       -3.3502289385       -5.4668479832
 H        -7.2482684186       -4.2731655187       -6.6012542410
 H        -7.3564997291       -2.5267524067       -6.5157558257
 H        -3.8658841674       -3.9397621704      -14.3180563835
 H        -3.0266807563       -2.4714931467      -14.7088552400
 H        -4.6975041172       -2.4575469928      -14.0611232881
 H        -2.1671733491       -4.6080329795      -12.7923322429
 H        -1.2842581246       -3.6033315658      -11.6759139214
 H        -1.0897742214       -3.3609368227      -13.4181881041
 H         2.2675745323       -1.5428285897      -12.8450131838
 H         2.7351592008       -0.3580953600      -11.7317486145
 H         3.8077722564       -0.6242304651      -12.9961758089
 H         3.8883814736        1.9305723369      -12.9949457816
 H         2.5901589998        2.2998832763      -12.0593795290
 H         2.5671807918        2.8944309168      -13.8021804599
 H         5.9014991357        2.1370071249      -18.4898882294
 H         6.2648433430        0.9066635717      -19.6551835841
 H         7.5777389002        1.5807144753      -18.8180458058
 H         7.7747393373       -0.9529354898      -18.6221746288
 H         6.2702943350       -1.7394394097      -18.2408616918
 H         7.4533106939       -1.6604166522      -17.0018372918
 H         8.6685871916        5.6436161076      -18.3414766443
 H         7.7032166165        6.7838609095      -19.1169654432
 H         7.1109598747        5.1764972594      -19.2008958876
 H         7.2221657573        7.1968108826      -15.3109245949
 H         7.3913766874        8.2149002725      -16.6985120789
 H         8.5679833647        7.1771910640      -16.1967992022
 H         1.8404832333        3.7887427913      -18.3628080692
 H         2.8734672526        4.8133213809      -19.2573323609
 H         1.1482789426        4.6093292804      -19.7550298166
 H         1.0420090283        8.1089026999      -19.1061104446
 H         1.1116087259        6.6613973225      -20.1706666274
 H         2.4808803543        7.2584180622      -19.2934878140
 H        -2.0380923476        8.5939367268      -12.1152016106
 H        -2.7353215958        7.2519895308      -12.8910347838
 H        -2.3107898651        8.6795552419      -13.7268924029
 H         1.4753735679        8.0036233553      -13.7778588749
 H         1.0973591558        8.1216217376      -12.0009073826
 H         0.4646163527        9.3506962464      -13.3343327653
 Na        0.9310247643        3.4671354255      -15.4943284368
 Na       -7.4137168807       -6.2876504570       -7.3182648593
