232

 C        -0.0804611347        5.5196381259      -11.6606717066
 C        -0.1596227075        5.7767100007      -13.1104083164
 O        -0.0580289935        4.9383790638      -13.9742817296
 C        -0.4584030542        7.2634617902      -13.5870124007
 C        -0.4984348886        7.2333905486      -15.1280243820
 O         0.3668571741        7.7376630147      -15.8310677697
 C        -1.6984587734        6.5960569828      -15.9662721795
 C        -1.2829545770        6.4890736081      -17.4513022076
 C        -0.1154440993        5.5107272825      -17.4756740519
 O        -0.5375703973        4.3019569935      -17.2425992767
 C         1.2663056486        5.7780825475      -18.0103713104
 C         2.2469997082        5.9979770402      -16.7199709400
 O         2.1861626880        5.1898441732      -15.8365259459
 C         3.1175063661        7.2279411921      -16.7222557523
 C         4.5744061363        7.1423903929      -16.3608485518
 C         5.3805058626        6.4544043809      -17.5290304998
 O         4.8331795810        5.9977629618      -18.4982731853
 C         6.8467520800        6.1436467893      -17.2402864468
 C         6.6567437251        4.8985687496      -16.1950901779
 O         6.0294374729        4.9916548641      -15.1594183439
 C         7.3859688035        3.5632026027      -16.4792048641
 C         6.6753827134        2.4113371712      -15.6966458813
 C         7.1015661569        0.9190520831      -16.1465224172
 O         7.7155870319        0.1811819977      -15.4229940662
 C         6.4252072640        0.3608818908      -17.5167560254
 C         4.9123954191        0.1861259088      -17.1472641097
 O         4.0674337934        0.8432734541      -17.7190040677
 C         4.4274496406       -0.8575890787      -16.0955536151
 C         2.9940811039       -0.7437673838      -15.6883310830
 C         2.4155063207        0.5563740217      -15.0305443628
 O         2.2739264077        1.5261703604      -15.7110697030
 C         2.1730694789        0.6386455465      -13.4949559049
 C         0.5123463791        0.7787106822      -13.3768145973
 O        -0.0544677270        1.6664257855      -13.9877208841
 C        -0.2474925522       -0.2224219112      -12.6083409917
 C        -1.6285701945       -0.4791022904      -13.2063569900
 C        -2.7984546550       -1.0740246231      -12.3569620104
 O        -3.6441096720       -0.4312673913      -11.7949216521
 C        -3.1069448811       -2.6568447710      -12.4538731600
 C        -4.0581954008       -3.0766100742      -11.3159378363
 O        -3.6214839306       -3.6630495572      -10.3444422477
 C        -5.6536045063       -2.7432096314      -11.3779881928
 C        -6.3085090067       -2.4247063969      -10.0218381661
 C        -6.3939499512       -3.5102694713       -8.8784432528
 O        -7.2277815277       -4.4055379944       -9.1175962954
 C        -5.6863508255       -3.4256282319       -7.5302526367
 C        -4.7492583653       -4.5165474864       -7.2972710247
 O        -5.1280705513       -5.7274394841       -7.2546809330
 C        -3.2882605018       -4.3009368138       -6.9888385607
 C        -2.8248123866       -4.9204458685       -5.6423961608
 C        -3.3377326011       -4.1401556708       -4.4144176796
 O        -4.1205029898       -3.1862813817       -4.5254602921
 C        -3.1392380230       -4.8596044948       -3.0568117785
 C        -4.2113696873       -6.0538407788       -3.1185717484
 O        -3.8922771673       -7.1698367960       -3.5779076075
 C        -5.6932439317       -5.7199320365       -2.6140636795
 C        -6.5721611780       -6.8960301003       -2.5548734781
 C        -7.0955353588       -7.3497331940       -3.9294797397
 O        -7.3900794759       -6.5465100669       -4.7827552022
 C        -7.3010633182       -8.9209968338       -4.2342626452
 C        -7.4438782987       -9.0628147760       -5.8282833177
 O        -6.4905078666       -8.6150701199       -6.4659574958
 C        -8.6070961331       -9.7897618400       -6.5713613442
 C        -8.3159132504       -9.8325011502       -8.0792462375
 C        -8.4654604897       -8.4621143647       -8.8007896378
 O        -7.4146287948       -7.8405948925       -8.9847967112
 C        -9.7836435814       -7.9205473589       -9.4477173156
 C       -10.3626349834       -6.9629938565       -8.1948032228
 O        -9.6129716431       -6.3119172570       -7.5150983045
 C       -11.8902103983       -6.7692478156       -8.1640374215
 C       -12.1565441776       -5.3745622355       -7.5690301905
 C       -11.9522957218       -5.1587621160       -6.0031882604
 O       -11.6227435767       -6.1289153379       -5.3597509397
 C       -12.4360987368       -3.8701999592       -5.3352438680
 C       -11.5574810643       -3.4529667985       -4.0771306750
 O       -10.6252997196       -2.7022533947       -4.2388602230
 C       -11.8236704313       -4.0739870171       -2.6934323575
 C       -10.5767562848       -4.2273436910       -1.8064795312
 C       -10.9600461971       -4.1819651502       -0.2807042753
 O       -12.0339999227       -3.6637550713        0.0612530133
 C       -10.1065264907       -4.7892500461        0.8861001026
 C       -10.2508463686       -6.3658929839        0.9328189339
 O       -10.0881147091       -6.9628579572       -0.1043912919
 C       -10.5388663433       -7.0927412843        2.2343903726
 C        -8.5256285344       -4.5536115790        0.5471785065
 C       -10.5507523591       -4.1350953238        2.1787081524
 C       -12.6485917668       -2.6102261566       -6.3689302093
 C       -13.8827143878       -4.2133558346       -4.8351642963
 C        -9.5246952947       -6.8766593507      -10.5874045313
 C       -10.8992091381       -8.9642897371       -9.6461559131
 C        -6.1053263104       -9.8014218567       -3.7556600373
 C        -8.6050511320       -9.1453446585       -3.4793018022
 C        -1.7325588322       -5.4909123310       -2.9761194313
 C        -3.4895904216       -3.8936349960       -1.8094863272
 C        -4.9283476309       -2.0480482812       -7.4409613594
 C        -6.8019774586       -3.4142785560       -6.5069314910
 C        -3.8879178731       -2.7099935303      -13.8032700554
 C        -1.9626039042       -3.6383690023      -12.3441935831
 C         2.7726361989       -0.4866732515      -12.6504374924
 C         2.8168517386        2.0266575123      -12.9665034280
 C         6.6709332946        1.1706223865      -18.7756872418
 C         7.0046213668       -1.0854707631      -17.6832322161
 C         7.5676231424        5.7845241434      -18.6165286688
 C         7.6224410907        7.2417054948      -16.4837963203
 C         1.8093581544        4.5590917466      -18.8217152092
 C         1.2660063987        7.1927909394      -18.8250725662
 C        -1.7621886278        7.6469501101      -12.8532566950
 C         0.6530088392        8.3318172044      -13.1503530863
 H        -1.0307337589        5.7894796227      -11.1712273914
 H         0.6374937138        6.2424955979      -11.3215381675
 H         0.1383945237        4.5251768942      -11.3063197883
 H        -2.6560883333        7.1376639589      -15.7955574690
 H        -1.9136950727        5.5456551130      -15.6997399822
 H        -0.9976373635        7.4391076887      -17.9119026777
 H        -2.0250287667        5.9570007225      -17.9282368752
 H         2.7278182641        7.9973090999      -16.0321673385
 H         3.1180755835        7.7757695046      -17.6550959918
 H         4.7564115864        6.6207910581      -15.4033063268
 H         4.9341299141        8.2035342364      -16.2689937223
 H         8.4274640027        3.6774612120      -16.0739341589
 H         7.5563874696        3.4116059075      -17.5991177613
 H         5.5786990569        2.5492697538      -15.8124338350
 H         6.8983955169        2.4656897495      -14.6384031422
 H         5.2575440656       -0.8255960369      -15.3993476941
 H         4.5756546414       -1.8514744271      -16.4799616573
 H         2.8260513187       -1.5846856864      -15.0176855018
 H         2.5183628685       -0.9960970973      -16.5488868897
 H        -0.4029595582        0.3831473333      -11.6614507621
 H         0.3932726654       -1.0259428195      -12.3648141369
 H        -1.4800547501       -1.2384757338      -13.9779129298
 H        -2.0044484794        0.4768111942      -13.6713364122
 H        -6.1671088497       -3.6711582501      -11.7110856616
 H        -5.8547712726       -1.9044068895      -12.0620985828
 H        -7.3960057575       -2.3691482387      -10.3659102549
 H        -6.1142549223       -1.4544018731       -9.6288225186
 H        -2.9659443170       -3.2853794250       -7.0802247257
 H        -2.7117155842       -4.7150348900       -7.8050308077
 H        -1.8006577662       -5.1671394405       -5.5231685157
 H        -3.2187369753       -5.9885869584       -5.5730805949
 H        -6.1380140822       -4.9013076953       -3.2727425914
 H        -5.5296836069       -5.2682193183       -1.5896358497
 H        -7.5477592414       -6.5326178440       -1.9425313527
 H        -6.2049687538       -7.7862380933       -2.0641159116
 H        -9.4810436026       -9.2315469622       -6.4059258951
 H        -8.7705494630      -10.8551906223       -6.3041363601
 H        -8.9472876290      -10.5720248614       -8.5888040992
 H        -7.2828362950      -10.2199786040       -8.2447140333
 H       -12.3056140175       -7.5006615325       -7.5044154064
 H       -12.3564080728       -6.7947912630       -9.1635251551
 H       -13.1929706146       -5.1486314851       -7.7692964684
 H       -11.6139887279       -4.7049018725       -8.1945935606
 H       -12.5443436569       -4.9373504038       -2.6367139975
 H       -12.3730315700       -3.2692603771       -2.0847592523
 H        -9.9978228380       -3.3732106698       -2.0339351258
 H        -9.9982614719       -5.2553712256       -1.7963714011
 H       -10.4694548408       -8.1840803603        2.0458089534
 H       -11.5215788557       -6.8205554650        2.7339658901
 H        -9.7915783399       -6.8029612272        2.9827840797
 H        -8.2340156485       -3.5653864324        0.8883468629
 H        -8.4955208233       -4.4870488786       -0.5522088636
 H        -7.8301395952       -5.3360490214        0.9532955962
 H        -9.8319110313       -4.3146289090        2.9429252112
 H       -11.5183807164       -4.4279548447        2.5661288530
 H       -10.5931190872       -3.0508825467        1.9386932709
 H       -13.0557254166       -1.8173795015       -5.7395372973
 H       -13.2464075301       -2.9346241297       -7.1468492047
 H       -11.6673378604       -2.4001718536       -6.7953382671
 H       -14.0738239305       -4.9940243165       -4.0936373193
 H       -14.5641246837       -4.3007899950       -5.6573586269
 H       -14.0770987234       -3.3124505430       -4.2715669754
 H       -10.2341237360       -7.1036654595      -11.4349339364
 H        -8.4491118427       -6.9779686716      -10.9618298942
 H        -9.7120857015       -5.8659501365      -10.1389802019
 H       -10.5924020251       -9.9349133778      -10.1341284434
 H       -11.7010931911       -8.5425923190      -10.2138652192
 H       -11.2045802020       -9.2064751801       -8.6341645891
 H        -5.1764882627       -9.5623908599       -4.1882502479
 H        -6.2810662581      -10.8559671303       -3.8799725131
 H        -6.0078875821       -9.6065713900       -2.6874497407
 H        -8.5129455589       -8.8591929895       -2.4471579172
 H        -9.0250056734      -10.2286122753       -3.3591144390
 H        -9.3473160896       -8.5946279346       -3.9643152238
 H        -0.9330244345       -4.8699823962       -3.4061424235
 H        -1.6793637118       -6.5079181833       -3.4646079548
 H        -1.5530393304       -5.6615007480       -1.9152087852
 H        -4.0073466914       -4.4492629564       -1.0383937773
 H        -4.1909836311       -3.0463354209       -2.1369464020
 H        -2.6305708875       -3.4065303452       -1.3912262616
 H        -4.7173999783       -1.6909237170       -6.4780403830
 H        -5.6830564439       -1.2888632815       -7.7413145199
 H        -4.1422082632       -1.8031639372       -8.1312605738
 H        -6.3696273645       -2.8412432077       -5.6484911577
 H        -7.1951758689       -4.3801962383       -6.2750607974
 H        -7.6682461934       -2.8748286409       -6.9928598968
 H        -3.9908364854       -3.7608621496      -14.0172839373
 H        -3.3589650077       -2.2771273380      -14.6069903837
 H        -4.8764141170       -2.2366115543      -13.8295525837
 H        -2.2239534012       -4.6535357490      -12.4906327329
 H        -1.3444693665       -3.5716888272      -11.4606793832
 H        -1.2460967945       -3.3811190314      -13.1015896686
 H         2.3864358794       -1.4226505937      -12.9440662291
 H         2.3562662918       -0.4849593350      -11.6323776586
 H         3.8430200874       -0.5430423691      -12.5961935667
 H         3.8095545466        2.2599129382      -13.2579407550
 H         2.8847601387        1.9127084402      -11.9302551882
 H         2.1473634111        2.8109596972      -13.2785694651
 H         6.0326820731        2.0872910524      -18.8082845693
 H         6.4430667667        0.6223438190      -19.6384701510
 H         7.7978289590        1.3162421946      -18.9260775163
 H         8.0915366107       -1.1734031294      -17.7687760256
 H         6.4641508100       -1.6232330832      -18.5815388349
 H         6.6500228458       -1.6132383101      -16.8373935761
 H         8.6277806673        5.4274863551      -18.5179629244
 H         7.7491879766        6.6175647520      -19.2711902371
 H         6.8707132386        5.0615999714      -19.1258366140
 H         7.3154986193        7.4196970343      -15.4592581662
 H         7.5700063791        8.1788580545      -17.1587878995
 H         8.7677030049        7.0566461944      -16.3529660911
 H         1.8433225980        3.7365086668      -18.0720595850
 H         2.8162455600        4.6513743557      -19.0238567924
 H         1.2620341279        4.4065661413      -19.8120938135
 H         1.2859720731        8.0214235168      -18.1520133188
 H         0.4724554714        7.1993766637      -19.5655802708
 H         2.1717376282        7.4024784561      -19.3311228753
 H        -1.7666980741        7.6731608714      -11.7442188244
 H        -2.6002977434        6.9937997937      -13.2035080264
 H        -2.0127328162        8.7361357937      -13.0105850629
 H         1.6441978603        7.9963978018      -13.2544623715
 H         0.5062647779        8.6075011173      -12.1793716325
 H         0.5448736238        9.0714169876      -13.9016386612
 Na        0.8011138820        3.3232534721      -15.4675320825
 Na       -7.1724116469       -6.3714781816       -7.4201143149
