232

 C         0.5992426258        5.3460115570      -11.8254115321
 C        -0.1149315692        5.6557144535      -13.1506755233
 O        -0.1823795371        4.8344182221      -14.0563452268
 C        -0.5169632864        7.1565908344      -13.5913946504
 C        -0.4920305605        7.2364180302      -15.1979600213
 O         0.3372150039        7.9009518635      -15.7825363309
 C        -1.6964764424        6.6142510265      -15.8250304060
 C        -1.4399750681        6.3341444238      -17.3090721208
 C        -0.1901490299        5.2855854529      -17.3244302667
 O        -0.4428861988        4.1898693412      -16.9748555285
 C         1.0711633739        5.8097569459      -17.9551526359
 C         2.1757508543        6.0537895042      -16.7930510193
 O         2.3803340783        5.2758685283      -15.8421651718
 C         2.9825568415        7.2762923113      -16.9432500166
 C         4.4388755843        7.0879447473      -16.4603604075
 C         5.3354497231        6.3482419680      -17.5165190450
 O         4.9224664998        6.0868515295      -18.6237291583
 C         6.8982813655        5.9850003279      -17.2003629653
 C         6.7656120802        4.8257031676      -16.0952984902
 O         6.1071281094        5.0747298480      -15.1096662406
 C         7.3072660781        3.4447484951      -16.5023664185
 C         6.6248149429        2.3777106911      -15.6987652964
 C         7.1248523513        0.9585951398      -16.1056976138
 O         8.1253044805        0.4723656735      -15.6209951937
 C         6.3529882227        0.2458960476      -17.3711572568
 C         4.8326241568        0.2284163416      -17.1131588987
 O         4.1514804108        1.0803604455      -17.6171107961
 C         4.3153298264       -0.7614526276      -16.0482790869
 C         2.7688150123       -0.7190165357      -15.6730832013
 C         2.3088517704        0.5311025224      -14.9601582232
 O         2.0784785188        1.4746547004      -15.7178639399
 C         2.0790067966        0.6069306415      -13.4265940475
 C         0.5602947307        0.6869438711      -13.3951288673
 O        -0.1434475241        1.6075445345      -13.8214231864
 C        -0.3976526927       -0.3379627790      -12.6054695246
 C        -1.8122193961       -0.4467396138      -13.3069110329
 C        -2.8985435150       -1.0555382444      -12.2696883389
 O        -3.3676151454       -0.2173471198      -11.4895934846
 C        -3.3114407937       -2.5822681930      -12.3631183189
 C        -4.2278992948       -3.1813922345      -11.1321146608
 O        -3.6547339295       -3.4957290464      -10.1033810987
 C        -5.6741517312       -2.9150358604      -11.2638180948
 C        -6.4559929655       -2.4441950254      -10.0029631378
 C        -6.5073169230       -3.5357170881       -8.8919763655
 O        -7.1875286410       -4.5156697619       -9.0871521622
 C        -5.7725589180       -3.2475246320       -7.5151172034
 C        -4.6660686888       -4.4390128419       -7.1940498410
 O        -5.1054962235       -5.5600035661       -7.1139285840
 C        -3.2167886825       -4.2298312589       -7.0583668400
 C        -2.8125751498       -5.0215391623       -5.8546356818
 C        -3.3901249924       -4.3735997420       -4.5909464965
 O        -3.8499868723       -3.2882145716       -4.7013618706
 C        -3.1773181514       -4.9911745554       -3.0465589149
 C        -4.2116844957       -6.1557338706       -3.1189670345
 O        -4.1554749597       -7.1261876443       -3.7973616668
 C        -5.5932798212       -5.7029336240       -2.4726466305
 C        -6.6122668124       -6.9110933355       -2.5454971032
 C        -7.0053739499       -7.2799819850       -4.0682088720
 O        -7.1004128200       -6.4014303257       -4.8850713676
 C        -7.4031539848       -8.7455068528       -4.3521073842
 C        -7.2754133355       -8.9180142209       -5.8850672195
 O        -6.2369211002       -8.6910552370       -6.4241747972
 C        -8.5072178992       -9.6768417400       -6.5390841732
 C        -8.4092905231       -9.9109663055       -8.0461259028
 C        -8.5367880634       -8.6046653480       -8.8224553922
 O        -7.6019731955       -7.9271544241       -9.0932799654
 C        -9.8447126760       -8.0274788123       -9.4416242643
 C       -10.3019975280       -6.9439255767       -8.2501437020
 O        -9.4741623850       -6.3527313031       -7.6008213449
 C       -11.8237749626       -6.7326990231       -7.8476755730
 C       -12.2127159111       -5.2515415385       -7.3412140075
 C       -11.8510920039       -5.1461796326       -5.9141190760
 O       -11.1640554827       -5.9100146069       -5.2565945743
 C       -12.4105086040       -3.7683036036       -5.2584200771
 C       -11.4112857504       -3.4054164855       -4.0849327033
 O       -10.5588703768       -2.5402048003       -4.2679877282
 C       -11.7758114571       -3.9164604231       -2.7112081819
 C       -10.5234069805       -4.3562911823       -1.8996553955
 C       -11.0117368914       -4.1480495511       -0.3691687555
 O       -12.1341184755       -3.7790605876       -0.0926595187
 C       -10.0915265661       -4.6815619006        0.8483402242
 C       -10.3852761018       -6.2652063836        0.8311751430
 O       -10.4824418552       -6.8427617749       -0.2438665463
 C       -10.5060383445       -6.9347901499        2.1259486106
 C        -8.5521130764       -4.6408179650        0.6690920405
 C       -10.4277243042       -3.8930638678        2.1152507585
 C       -12.2164209791       -2.6575629610       -6.2199959309
 C       -13.8621267305       -4.0229238676       -4.8447079390
 C        -9.3465849207       -7.0906578868      -10.6801615880
 C       -10.9822009257       -9.0056337253       -9.9953941344
 C        -6.2794451719       -9.6516052904       -3.7693816333
 C        -8.6975425091       -9.1555482809       -3.6387610920
 C        -1.7567583272       -5.5847912129       -2.9720588103
 C        -3.3337294055       -3.8333142479       -2.1120412828
 C        -5.1294356292       -1.9307049899       -7.3550185188
 C        -6.8704376520       -3.2976274103       -6.3998758411
 C        -3.9920690212       -2.9472068422      -13.6775784689
 C        -1.8745274034       -3.3101480546      -12.3858492477
 C         2.6765866607       -0.5554662077      -12.5804150585
 C         2.5984614191        1.9388246653      -12.8549476330
 C         6.6197779169        1.0100980354      -18.7199059151
 C         7.0812273138       -1.1519835850      -17.5685273765
 C         7.5693173924        5.4862004067      -18.4480028056
 C         7.5848538415        7.1779257308      -16.6072162628
 C         1.9648457124        4.6629740558      -18.7467778525
 C         0.9505816650        6.9313479675      -19.0468022514
 C        -1.8847818292        7.6894191300      -13.2246212300
 C         0.6360372335        8.0899505310      -13.0354023547
 H         0.0106783156        5.0356166577      -10.9912707327
 H         1.3102271397        6.0748757487      -11.4735815706
 H         1.1668432129        4.4784304020      -12.1212069692
 H        -2.5706889398        7.2316910878      -15.7088250693
 H        -1.8849673552        5.7061325362      -15.2656037340
 H        -1.3514548916        7.2932271153      -17.8475809171
 H        -2.2630525348        5.6070466631      -17.5869312136
 H         2.5474315514        8.1256091509      -16.4136687615
 H         2.9989429863        7.6548883671      -17.9622219971
 H         4.4662252396        6.5490084599      -15.5242256720
 H         4.9211785123        8.0319623328      -16.3588696041
 H         8.4086535769        3.5113730066      -16.4031345541
 H         7.1257173001        3.2882561421      -17.5255906908
 H         5.5493819059        2.4333215005      -15.8965334410
 H         6.8195738539        2.5031578660      -14.6171979803
 H         5.0587780956       -0.7290574331      -15.2239646801
 H         4.4923935911       -1.7578118463      -16.5370990386
 H         2.6045793759       -1.6753612881      -15.1759586834
 H         2.1199512425       -0.8336903969      -16.6778897971
 H        -0.4604571576       -0.0360711433      -11.5729432679
 H         0.1112852616       -1.3466067766      -12.5346384158
 H        -1.7655805688       -1.0099861666      -14.2668162397
 H        -2.1673179406        0.5425113358      -13.4015519465
 H        -6.1388480517       -3.6801174887      -11.8762370472
 H        -5.6375776078       -1.9983545125      -11.8408168681
 H        -7.4226865350       -2.1559676314      -10.4287632163
 H        -6.0192046281       -1.4695217323       -9.6239181138
 H        -2.8244163136       -3.2057629908       -6.9130531841
 H        -2.7537105914       -4.5806011065       -8.0173724534
 H        -1.6875237364       -4.9169582803       -5.7085871635
 H        -2.9830905888       -6.0703650843       -5.8487802672
 H        -5.8101580302       -4.8803089032       -3.1386696942
 H        -5.5754134777       -5.2884161640       -1.4720293918
 H        -7.4494523057       -6.6909342967       -1.9966822524
 H        -6.2193960549       -7.8081225683       -2.0833175242
 H        -9.4386245709       -9.0950213865       -6.3179272172
 H        -8.6279991487      -10.6895148399       -6.1796186718
 H        -9.1157275842      -10.6817160318       -8.3332422600
 H        -7.4900775585      -10.3701832701       -8.3032705504
 H       -12.1600398820       -7.4006822792       -6.9887664090
 H       -12.4192598838       -6.9395002663       -8.7486421311
 H       -13.2487504037       -4.9549155215       -7.5763236490
 H       -11.5647446797       -4.4815834006       -7.8443314123
 H       -12.4200157972       -4.7730611803       -2.7271851356
 H       -12.3202117608       -3.1178772153       -2.2509529917
 H        -9.7248802697       -3.5770956293       -2.1518589823
 H       -10.3262225674       -5.3597306490       -2.1218992596
 H       -10.6310309338       -7.9781563219        1.9641419037
 H       -11.4008127667       -6.5721962703        2.6019344998
 H        -9.7381673043       -6.6824361645        2.8416361198
 H        -8.2667005014       -3.6044423807        0.7482586342
 H        -8.1363893673       -5.0662996746       -0.2347749204
 H        -8.1463659403       -5.1233604746        1.4973882359
 H       -10.5704559910       -4.4817201642        3.0475180270
 H       -11.4245876655       -3.4064042538        1.9210935854
 H        -9.6977387436       -3.1038377592        2.2481730584
 H       -12.3994156391       -1.8098458249       -5.5653369158
 H       -12.8845012601       -2.7883962073       -7.1229998937
 H       -11.2254137532       -2.7337727445       -6.6205058550
 H       -13.8278015881       -4.9705380645       -4.2857948530
 H       -14.4099253862       -4.2359070728       -5.7796454810
 H       -14.4353658925       -3.2937307517       -4.2632181071
 H       -10.2321890069       -6.5653226848      -11.0317296156
 H        -8.8754640263       -7.7229334706      -11.3906375383
 H        -8.6056559948       -6.4691262727      -10.2539000966
 H       -10.5181302892       -9.8044412530      -10.4658176865
 H       -11.6033592211       -8.3926357557      -10.6224275448
 H       -11.5621152867       -9.3672325243       -9.1512091910
 H        -5.2926806680       -9.4107286393       -4.1143943171
 H        -6.4634263622      -10.6604152363       -4.0898067939
 H        -6.3170670170       -9.6644277343       -2.6792318202
 H        -8.4492641585       -9.4885533015       -2.6433612202
 H        -9.0769795149       -9.9920820165       -4.1026948044
 H        -9.6058274448       -8.4754076456       -3.6350401369
 H        -1.0308504325       -5.0162320431       -3.5741270894
 H        -1.7476592219       -6.6069045519       -3.2615050991
 H        -1.4263790914       -5.6264760589       -1.9124098730
 H        -2.7509778144       -4.0211043836       -1.1790584621
 H        -4.3208299465       -3.6549922968       -1.8264650472
 H        -3.0422119418       -2.8867527806       -2.6626491117
 H        -4.5782724101       -1.8282572806       -6.3714622152
 H        -5.8188546565       -1.0871888643       -7.3379144439
 H        -4.4139820438       -1.6414163356       -8.1572905792
 H        -6.4976901911       -3.0710012461       -5.4432128266
 H        -7.4573340757       -4.2105075480       -6.5060017764
 H        -7.5571462748       -2.5906650714       -6.7432434383
 H        -4.6994000820       -3.8109452677      -13.5946579946
 H        -3.2513827050       -3.1819269335      -14.5110724278
 H        -4.4758730716       -2.0593605239      -14.1055932130
 H        -2.1163086323       -4.3800328629      -12.4674608046
 H        -1.3196410493       -3.2147774391      -11.4740371004
 H        -1.1231617466       -3.0523129773      -13.0981598589
 H         2.2143252764       -1.5348471715      -12.8011276861
 H         2.4126006628       -0.4646551588      -11.5004443203
 H         3.7750870942       -0.6600307289      -12.6678699642
 H         3.6810083200        2.0981011576      -13.0100518898
 H         2.3948968911        1.9530444579      -11.7245567746
 H         2.0801662574        2.7282183243      -13.4184519688
 H         6.0806978719        1.9180323341      -18.5556163487
 H         6.0717009032        0.5072765379      -19.5850010513
 H         7.5817549506        1.1815520316      -19.0162573453
 H         8.1197777880       -0.9457634477      -17.6304120364
 H         6.7872004327       -1.5131127568      -18.5166204183
 H         6.9210608058       -1.9281380937      -16.7993165179
 H         8.5782900907        5.2119537452      -18.2661322805
 H         7.7385069289        6.3751008572      -19.0660382955
 H         7.0371622356        4.7285418959      -18.9301749619
 H         7.0665680970        7.4399239194      -15.6723699199
 H         7.7500011428        7.9947478600      -17.2767764322
 H         8.5384500422        6.9306125097      -16.2841822531
 H         2.1646679454        3.8341270857      -18.0681226895
 H         3.0300106301        5.0239054029      -18.9576197608
 H         1.5413017315        4.4324411317      -19.6704496549
 H         0.9265509509        7.8758514948      -18.4885264791
 H         0.0931954094        6.7273623489      -19.6755183967
 H         1.8410160331        7.1379977912      -19.6896132951
 H        -2.0098616153        7.8780626123      -12.1555190460
 H        -2.6162267816        6.9891224508      -13.4541982953
 H        -2.0960271062        8.6416590314      -13.6736240678
 H         1.6814372674        7.6313094012      -13.2776109224
 H         0.5558773157        8.1182520778      -11.9013025822
 H         0.5435443923        9.0186939980      -13.6367057733
 Na        0.8193301003        3.2869209434      -15.5310562197
 Na       -7.2037038385       -6.3488235730       -7.3116470528
