232

 C       -21.5616305066       -6.6011884607       -1.6885756189
 C       -21.5984722455       -5.2722749124       -2.2946411604
 O       -20.8631670845       -4.4502204136       -1.7751336798
 C       -22.3768206093       -4.7859235248       -3.5624801942
 C       -21.1592647754       -4.4630191000       -4.5809524023
 O       -20.4319840199       -3.4916480405       -4.3356992366
 C       -20.8820945506       -5.3371541311       -5.8290329342
 C       -19.4303157628       -5.4405144305       -6.3932787763
 C       -18.3352580662       -4.9196319173       -5.3579466776
 O       -18.4153933047       -5.2842086075       -4.1993053067
 C       -17.0571494588       -4.0172819799       -5.9230361788
 C       -16.6926627158       -3.0395520654       -4.6445641642
 O       -17.5224999094       -2.2308274328       -4.2910441387
 C       -15.4419432475       -3.3360728737       -3.7730737160
 C       -15.4138760013       -2.4048029476       -2.4504073888
 C       -16.0368986670       -3.2201296717       -1.2901151061
 O       -16.9689435777       -4.0441443252       -1.3890999793
 C       -15.2403630373       -3.0543143584       -0.0180411245
 C       -13.8557278952       -3.9050430066       -0.2992467615
 O       -12.8790421742       -3.2360128442       -0.5294492553
 C       -13.8634799371       -5.3738000136       -0.3948525092
 C       -12.4664935419       -5.8757863051       -0.8120475558
 C       -12.3067186674       -6.1764532455       -2.3205042167
 O       -13.1606915292       -5.8081820330       -3.1106303093
 C       -11.0077595260       -6.8236941131       -2.8661003094
 C        -9.6809334332       -6.0403862285       -2.3592383984
 O        -9.7663993546       -4.8606885235       -2.0981982050
 C        -8.2654416466       -6.7238012359       -2.4473222760
 C        -7.2172545244       -5.6350781818       -2.3964516290
 C        -7.2425303110       -4.6391625623       -3.5031979297
 O        -7.6230639725       -4.9553660364       -4.6138844868
 C        -6.3464906849       -3.3814321141       -3.3243529404
 C        -4.9287822272       -3.8671701816       -3.7633462776
 O        -4.3520276165       -4.5601079695       -2.9546018538
 C        -4.3914092496       -3.6494348135       -5.1985943851
 C        -3.0049556651       -4.3023050527       -5.3971651942
 C        -1.8490238140       -3.4464562320       -4.9786590485
 O        -1.9645732265       -2.2422514390       -4.8774590800
 C        -0.3299146555       -4.0304817599       -4.6414592572
 C         0.2054455240       -4.6184728552       -5.9408209576
 O         0.0051339976       -5.7832224117       -6.2089192888
 C         0.8774929067       -3.7318823680       -6.9700158646
 C         0.2783542946       -3.7528010538       -8.3860426386
 C         1.2032910348       -3.0992383149       -9.4147136087
 O         2.2934863563       -2.6218829152       -9.1182948298
 C         0.6102386510       -3.0793755511      -10.8571728989
 C         1.3990537425       -1.9618619421      -11.6559810588
 O         0.8659551772       -0.9202430799      -11.9834316771
 C         2.9017001728       -2.2579830511      -11.9385145578
 C         3.4266693380       -1.0080852830      -12.7172730951
 C         4.8919251876       -0.9551434589      -13.1189000683
 O         5.7186986862       -0.1830378304      -12.6844220221
 C         5.5490841195       -2.1153648532      -14.2185182252
 C         6.7764523765       -1.3739737539      -14.8420890995
 O         6.6249454123       -0.8657364783      -15.9677431420
 C         8.1214745562       -1.4350285889      -14.1010488506
 C         9.3038091030       -0.4388632622      -14.6833569465
 C         9.0345564291        0.9884859858      -15.3875202570
 O         9.4515368231        1.1518546729      -16.5237923194
 C         8.5448106020        2.3002914490      -14.6978881618
 C         7.0965760094        2.7504406691      -15.4834039299
 O         6.0757111496        2.3877249888      -15.0280684081
 C         7.2984043698        3.7601609712      -16.5823528103
 C         5.9539001887        4.3046743728      -17.0993648994
 C         4.9832866602        3.2244106995      -17.5684142610
 O         5.3255413926        2.0537802314      -17.7114060342
 C         3.4687205210        3.6817431863      -18.0284285788
 C         3.8544903140        4.9421308613      -18.9995496647
 O         3.7493818760        6.0925453479      -18.6342312790
 C         4.4010480235        4.6744296513      -20.3721006015
 C         5.6980691522        5.3986537013      -20.6536980989
 C         6.1655914160        5.6819471869      -22.0625593807
 O         5.4581634684        5.8872079824      -22.9735491233
 C         7.7325740659        5.6131420337      -22.4383326451
 C         8.3392421708        4.3000630231      -21.8755955388
 O         8.0825560234        3.2437573473      -22.4386370243
 C         9.4337407443        4.3850425132      -20.7898694995
 C         9.9399796019        2.9441500034      -20.5030487657
 C         8.9499038496        1.8503080648      -20.1288902225
 O         8.1250441329        2.0709889954      -19.3112321468
 C         9.1672738155        0.4197511526      -20.8424100210
 C         7.7032724610       -0.2630001550      -20.7897032036
 O         7.1892988065       -0.2472828443      -19.6696625409
 C         7.1171282344       -1.1428437203      -21.8765326757
 C         9.7279815050        0.5396327863      -22.2582041135
 C        10.1033579688       -0.5065965729      -19.9585258552
 C         7.7903859758        5.6991416471      -23.9602355418
 C         8.3102210041        6.8889343340      -21.6706218481
 C         2.7352169432        2.6820940029      -18.8912321409
 C         2.6763637993        4.1399727096      -16.8059958081
 C         8.2686925866        2.1757660407      -13.2292788235
 C         9.7145638541        3.3434238183      -14.7720181326
 C         6.1106865820       -3.3016482368      -13.2907138685
 C         4.5248231355       -2.5363696240      -15.3185086197
 C         0.9305011944       -4.5002970816      -11.5203134270
 C        -0.8524755966       -2.6420428913      -10.9615543051
 C         0.5145381561       -2.7920222869       -4.2262267958
 C        -0.5236520554       -5.0520074157       -3.5472800791
 C        -6.9874107949       -2.3209614589       -4.3206733627
 C        -6.3806491513       -2.9101835616       -1.8900009397
 C       -11.0531296333       -8.3121636834       -2.2935326383
 C       -10.9304071571       -6.8454885895       -4.3696237855
 C       -14.8144291213       -1.5255109253        0.1424125735
 C       -15.9791864667       -3.6046424172        1.1942935854
 C       -16.0114163449       -5.0428510472       -6.3656866780
 C       -17.4063668905       -3.1120164911       -7.0504231272
 C       -23.4198109861       -5.7468599271       -4.1511051093
 C       -23.0556401955       -3.4269413280       -3.1988493129
 H       -22.5711305495       -7.0666991252       -1.7101835693
 H       -21.2163982323       -6.4707093281       -0.6189605812
 H       -20.8629479119       -7.3246965345       -2.1650954081
 H       -21.5183872817       -4.8939851950       -6.6216903895
 H       -21.2744410674       -6.3004240766       -5.6667274422
 H       -19.3381197792       -4.8173104309       -7.3035796461
 H       -19.0574390096       -6.4873935189       -6.5374625025
 H       -14.5845275972       -3.2933244068       -4.4175782645
 H       -15.6510048509       -4.3307895246       -3.4824550264
 H       -15.9755000757       -1.4423583514       -2.6241618654
 H       -14.4198551276       -2.1478521824       -2.2012687816
 H       -14.4960863822       -5.7152725370       -1.2149647353
 H       -14.1562803661       -5.7571944684        0.5651711009
 H       -12.1682454694       -6.7788511422       -0.2278221855
 H       -11.7369262225       -5.0936577039       -0.6678417993
 H        -8.2990038100       -7.2525429382       -3.3703159934
 H        -8.2193772756       -7.3852842507       -1.6356942459
 H        -6.2692303916       -6.1475602922       -2.5579593243
 H        -7.2324087034       -5.1081076655       -1.4086680857
 H        -4.2878150538       -2.6084476462       -5.3827926205
 H        -5.1297399385       -4.0216395895       -5.8855963093
 H        -2.8336312025       -4.6239396067       -6.3672317564
 H        -2.9911200579       -5.2513918007       -4.8234854460
 H         1.8176791810       -4.3139826297       -7.1548650757
 H         1.1656714418       -2.7635295176       -6.6865422681
 H        -0.7531165445       -3.4287072279       -8.3957220860
 H         0.1521006370       -4.8458492353       -8.7523961010
 H         3.1065477938       -3.0388206895      -12.5639567434
 H         3.3580253768       -2.2983065479      -10.9277417706
 H         3.0263766088       -0.0981243422      -12.2259423869
 H         2.8000686576       -1.0281187448      -13.6504681112
 H         8.4913686309       -2.4086676664      -13.9143768961
 H         7.8344115259       -1.2268730636      -13.0869373530
 H         9.8458874466       -1.0164710833      -15.4107230157
 H         9.8855165025       -0.2734662547      -13.7504618681
 H         8.0174984163        3.4423359783      -17.3661437093
 H         7.7708434892        4.6519719111      -16.1719009430
 H         6.1519706560        4.9844559039      -17.8313869721
 H         5.4933788925        4.7862914057      -16.3098593635
 H         3.5850371848        5.1274955606      -20.9887085830
 H         4.5913619372        3.6748216565      -20.3880482988
 H         6.5583367252        4.8269176057      -20.2522186469
 H         5.6979777175        6.4203073055      -20.1830258715
 H         8.9801832133        4.7472141685      -19.8581258743
 H        10.2951906018        5.1004424393      -20.9654665428
 H        10.6105772399        2.9447875957      -19.6854113236
 H        10.6471228993        2.5907653773      -21.3028964814
 H         7.8676089934       -1.9187607023      -22.3188796079
 H         6.5771251550       -0.6855747513      -22.6970302341
 H         6.2672792178       -1.7327803846      -21.4099384963
 H        10.1156228322       -0.4810416828      -22.7773953906
 H        10.7230853336        1.0218734697      -22.2485563200
 H         9.1007402326        1.0291082083      -22.9935079465
 H        11.1121029629       -0.1544558783      -19.9811173538
 H        10.0073995563       -1.6079424320      -20.1713179003
 H         9.8338252492       -0.3634758475      -18.9228513921
 H         7.3014434368        4.7569020053      -24.3753155445
 H         8.7934368265        5.5933705192      -24.2161357852
 H         7.3908118453        6.6054303340      -24.4508944138
 H         9.0442665903        7.3941870274      -22.3218500039
 H         8.7870418193        6.8763571524      -20.6777623296
 H         7.5202141343        7.6845469929      -21.6870865168
 H         2.9296684262        1.6451733399      -18.4890614841
 H         2.8431168713        2.7266618112      -19.9608688575
 H         1.6654739143        2.7773575464      -18.7076721891
 H         2.9629097765        5.1821812210      -16.6157661221
 H         2.9190420678        3.4770242994      -15.9448281519
 H         1.6220720789        4.1473211376      -16.9195179336
 H         8.3066801189        3.1991272721      -12.8232475932
 H         9.0297848964        1.6075973299      -12.7394495719
 H         7.3715696815        1.5727915100      -12.8864837297
 H        10.4028582688        3.0570737421      -13.9778559097
 H         9.4335631254        4.4194968523      -14.6136375274
 H        10.2276936488        3.2258836485      -15.7079378233
 H         5.2702238296       -4.0118716341      -13.1388211950
 H         6.6252950969       -2.9890943343      -12.3564769517
 H         7.0282040692       -3.7859086670      -13.7723339582
 H         3.6558069834       -3.0448781956      -14.9586747431
 H         5.0072273611       -3.1494688989      -16.0415357460
 H         4.0675054379       -1.6213398386      -15.7391889277
 H         0.3250144846       -5.2554682117      -11.0618198571
 H         1.9417421113       -4.8077485302      -11.2984819334
 H         0.6993828538       -4.5691609320      -12.6030750519
 H        -0.9540165856       -1.6163266720      -10.6211849264
 H        -1.5574426946       -3.3482843742      -10.5264703765
 H        -1.0382693611       -2.5556198452      -12.0368810059
 H        -0.0608115777       -2.1777510486       -3.5073555963
 H         0.5117500897       -2.1355562602       -5.0621727965
 H         1.5241842500       -2.9498668556       -3.9479902028
 H        -1.2160599786       -5.7830938582       -3.8542409139
 H        -0.9993768458       -4.6644110875       -2.6100393574
 H         0.4575649785       -5.4570885057       -3.3456980159
 H        -6.7541944337       -2.5080126723       -5.3211212980
 H        -6.7490811020       -1.2768650334       -4.1629846511
 H        -8.0861005017       -2.2661727009       -4.2970936907
 H        -7.4431487554       -2.9994564111       -1.4511040947
 H        -6.1049363873       -1.8678052601       -1.8871998501
 H        -5.6717338627       -3.4015524228       -1.2526496299
 H       -12.0150197899       -8.7075461448       -2.3716015147
 H       -10.8320623280       -8.2306316096       -1.2426840655
 H       -10.1606162978       -8.9110761924       -2.6501612696
 H       -11.9736810497       -7.1390846958       -4.7259405979
 H       -10.4036979067       -7.7012660385       -4.7531766107
 H       -10.5893144623       -5.9572572327       -4.8122098397
 H       -15.7315310014       -0.8808399985       -0.0699233725
 H       -14.0029514498       -1.1353795839       -0.4314086992
 H       -14.4682599712       -1.3010816692        1.1441278196
 H       -15.3108116972       -3.6151330894        1.9875159266
 H       -16.3892057874       -4.5355454073        1.0202463908
 H       -16.7037587751       -2.9131282654        1.5037981698
 H       -15.1268199735       -5.0382891226       -5.8055158811
 H       -15.6991026472       -4.9214613229       -7.4444012492
 H       -16.4515273273       -6.0131294330       -6.3674279328
 H       -18.2288346741       -2.3609122477       -6.8594356817
 H       -17.9694792284       -3.6685672076       -7.8515182350
 H       -16.5978570755       -2.7392741010       -7.6749130192
 H       -22.9681209484       -6.6464198021       -4.4173609636
 H       -23.8515330276       -5.2932126638       -5.0734100052
 H       -24.2147341802       -5.8435550346       -3.3217252073
 H       -24.0963371527       -3.5587294413       -3.0048273718
 H       -22.8506995510       -2.7559868610       -4.0333347483
 H       -22.7093205124       -3.0491550470       -2.2240380841
 Na      -18.8646482814       -3.5234548693       -2.6250712887
 Na        7.1434971254        0.6707711799      -17.3991429432
