232

 C         0.9785640461        5.2648215863      -12.2031459998
 C        -0.0041626223        5.6882751234      -13.3123963159
 O        -0.5156283268        4.8008197111      -13.9649671908
 C        -0.3951969986        7.1874985048      -13.5872447868
 C        -0.5999252928        7.3733998300      -15.1482417352
 O         0.3199999450        7.9207949007      -15.7337946748
 C        -1.7683219561        6.6858591936      -15.9221035444
 C        -1.5242307387        6.0816529112      -17.2983908123
 C        -0.3028468173        5.1992895049      -17.3487974839
 O        -0.2921990351        3.9542348395      -17.0850042434
 C         0.9862691889        5.6555151972      -18.1761284894
 C         2.0891008242        6.0935873260      -17.0253431663
 O         2.1601656233        5.4891638581      -16.0030503212
 C         3.0503643182        7.3445993049      -17.0486354655
 C         4.5466716035        7.0665724110      -16.5630728745
 C         5.3663800953        6.3867242736      -17.6552526529
 O         4.8707870739        6.1914491673      -18.7609462312
 C         6.7524963362        5.8933574277      -17.1773577537
 C         6.7430408321        4.7821300112      -16.0317458323
 O         6.4132775340        5.0532902269      -14.8749443244
 C         7.3276739643        3.3914606009      -16.3906303743
 C         6.5326129162        2.2471045989      -15.6767898278
 C         7.1631548490        0.9526150460      -16.1554623941
 O         8.2988664486        0.7064896982      -15.8340997926
 C         6.3613223218        0.1566577223      -17.3189730414
 C         4.8847283938        0.2172885135      -16.9242998508
 O         4.0900233776        1.0122893333      -17.3379804961
 C         4.3750440996       -0.7962249077      -15.7889829470
 C         2.8406018632       -0.7688318346      -15.6576470189
 C         2.2567544197        0.4242642231      -15.0420055212
 O         2.1424609571        1.4222469102      -15.7418959533
 C         1.8830095260        0.5354699246      -13.5025047078
 C         0.2752959778        0.6583241611      -13.3541640695
 O        -0.2140234145        1.6571540280      -13.8255224614
 C        -0.5314847205       -0.4272631062      -12.8211613198
 C        -2.0178913015       -0.4871699236      -13.2703657716
 C        -2.9010559735       -1.0345722982      -12.1579808466
 O        -3.2441091657       -0.4761144807      -11.1818544171
 C        -3.2886440883       -2.5800140040      -12.2219667043
 C        -4.1897078659       -2.8950576827      -11.0854016700
 O        -3.7168770115       -3.1264129906       -9.9832724331
 C        -5.7750621008       -2.9458195799      -11.2240930182
 C        -6.5415921005       -2.4938913472       -9.9404239823
 C        -6.4611345757       -3.4628230768       -8.7690853194
 O        -6.7774202636       -4.6120419843       -8.8856306162
 C        -5.7389390526       -3.1059667791       -7.3682811662
 C        -4.7900282901       -4.3065928360       -7.1794077286
 O        -5.1624559772       -5.4605192030       -7.1489073149
 C        -3.2040217872       -4.2001734936       -7.2504456222
 C        -2.5824079348       -4.9313166432       -6.0275660753
 C        -3.1930251270       -4.3065192636       -4.7422260353
 O        -3.8687250117       -3.2738286887       -4.8577141158
 C        -3.0602441523       -4.9608734092       -3.3134187132
 C        -4.3664985703       -5.9332684877       -3.1895123326
 O        -4.2143396859       -7.0407256101       -3.6886855550
 C        -5.6448314701       -5.7420314316       -2.3499149202
 C        -6.7459915234       -6.8451798188       -2.5255792011
 C        -6.8543734265       -7.2278525404       -4.0661146850
 O        -6.8387350587       -6.3239800047       -4.8731684786
 C        -7.2917572778       -8.7322536441       -4.4721261316
 C        -7.3399315650       -9.0521803406       -6.0287820034
 O        -6.4062037032       -8.6491270789       -6.7300083675
 C        -8.6481156719       -9.6667892077       -6.5257704837
 C        -8.6656253522       -9.9845772154       -8.0495329458
 C        -8.4466257803       -8.6780406665       -8.8793284918
 O        -7.3122770641       -8.2133852578       -9.1379862848
 C        -9.6763906676       -7.9872735644       -9.4486163091
 C       -10.3045147035       -6.9742574091       -8.2773907054
 O        -9.5233148066       -6.2297112581       -7.7118677135
 C       -11.7931377963       -6.9008966972       -7.9218055172
 C       -12.0915509813       -5.5628450593       -7.3103846112
 C       -11.6627628596       -5.0569390987       -5.8729346641
 O       -10.9042423691       -5.7021613371       -5.1627611599
 C       -12.1901366321       -3.6221779534       -5.3855218541
 C       -11.2818488434       -3.2847160277       -4.0929568236
 O       -10.2845342773       -2.6209246582       -4.0683143574
 C       -11.6558889632       -4.0395661907       -2.8382644231
 C       -10.5249073071       -4.0887217599       -1.7815538355
 C       -11.0538270757       -4.0667837802       -0.3431064366
 O       -12.1131648901       -3.6716381063        0.0007564803
 C       -10.0559229664       -4.6903672042        0.8473954425
 C       -10.4504942525       -6.1716507536        0.8158917370
 O       -10.7812059748       -6.7689555291       -0.1879109863
 C       -10.6564482853       -6.9395140380        2.1586392264
 C        -8.6306629644       -4.5373260304        0.3336460259
 C       -10.4225687815       -3.8981333796        2.1854946983
 C       -12.1510647225       -2.4488730354       -6.4816447346
 C       -13.6421637541       -3.7626920436       -4.9702145160
 C        -9.6102357876       -6.9442673782      -10.7751562684
 C       -10.9185793259       -9.0367215104       -9.7694237513
 C        -6.2918457009       -9.6630577656       -3.7427917857
 C        -8.7109560712       -8.9028437488       -3.8700644352
 C        -1.8294552304       -5.9196553010       -3.1064390845
 C        -3.1119030684       -3.9093977926       -2.2215125251
 C        -5.1138613128       -1.7255586645       -7.3517734801
 C        -6.8454329724       -3.2918628603       -6.2671934807
 C        -3.9361256808       -2.8939475699      -13.5715695943
 C        -2.0313529710       -3.3909649885      -12.0647873118
 C         2.4435554812       -0.7153972925      -12.7582304552
 C         2.4554394632        1.8362138515      -12.9061652322
 C         6.5801579099        0.9574710125      -18.6317551386
 C         6.8074187335       -1.3652876355      -17.3482665167
 C         7.5492574225        5.5073704053      -18.4555391242
 C         7.5231555761        7.0909699658      -16.4858284098
 C         1.6335346382        4.3712910199      -18.7176042584
 C         0.7550770020        6.7744668531      -19.1981175146
 C        -1.7402433458        7.3047072208      -12.7778243718
 C         0.5438611716        8.2364342996      -12.9993405368
 H         0.3763038552        5.0528096793      -11.2820181330
 H         1.7027116348        6.0602272434      -11.8818864691
 H         1.6218011595        4.3773091844      -12.3969273371
 H        -2.7063304810        7.2821257753      -15.9881914680
 H        -2.0286278857        5.8451030963      -15.2422764114
 H        -1.3039003535        6.8502028318      -18.0119504672
 H        -2.3596046062        5.4683187435      -17.5490190457
 H         2.6591176578        8.0900766263      -16.3543869277
 H         3.0489552582        7.9258796267      -17.9770255501
 H         4.5210672954        6.3445657289      -15.7263371409
 H         5.0831851455        7.9944104708      -16.2419520911
 H         8.3849407659        3.3674131480      -16.2196339573
 H         7.0725886855        3.2851086582      -17.4845639104
 H         5.4621182494        2.1315179965      -15.8950082934
 H         6.6954266355        2.3275121182      -14.6127317641
 H         4.8826534242       -0.6582674692      -14.7898314771
 H         4.6451157673       -1.7811343806      -16.1952217016
 H         2.5505510097       -1.7758259961      -15.3236819551
 H         2.4009802572       -0.6821977977      -16.5504683737
 H        -0.3456066078       -0.1417288671      -11.7481135279
 H        -0.0141545215       -1.3694317112      -12.8094780757
 H        -2.2679212024       -1.1434510434      -14.0837038672
 H        -2.3389637734        0.5727388851      -13.4507355808
 H        -5.9648673456       -3.9746525225      -11.5512395719
 H        -6.1802435231       -2.2605330674      -12.0013607718
 H        -7.5204731532       -2.3352984647      -10.3149083018
 H        -6.3037363889       -1.5096925529       -9.6763812557
 H        -2.6959514459       -3.2038133422       -7.2342345137
 H        -2.8305678703       -4.7553025178       -8.1293291497
 H        -1.5123243654       -4.7663104358       -5.9828324111
 H        -2.7477027836       -6.0741077949       -6.0238337018
 H        -5.9541010191       -4.7044316996       -2.4762991635
 H        -5.3733263289       -5.8639262354       -1.3005364688
 H        -7.7250781304       -6.3105312134       -2.2390848212
 H        -6.7528824805       -7.7252955661       -1.7719483900
 H        -9.4244210641       -8.9051545487       -6.3523502195
 H        -8.8653572759      -10.5819233296       -5.8982677092
 H        -9.6032860981      -10.4514470796       -8.3898464862
 H        -7.9382971567      -10.7759555926       -8.4066640432
 H       -11.9908300215       -7.6243666376       -7.1901231004
 H       -12.4910004804       -7.0527734336       -8.7410552680
 H       -13.1759012744       -5.4242549689       -7.4492283384
 H       -11.6633672643       -4.8184981499       -7.9823414809
 H       -11.9264871499       -5.1066801134       -3.0000227262
 H       -12.5251768741       -3.4345496146       -2.4537611542
 H        -9.9278168111       -3.2560949715       -1.9992887063
 H       -10.1178827749       -5.1394374347       -1.9448784614
 H       -10.7720918590       -7.9980460674        1.8870147560
 H       -11.5588916415       -6.6821800793        2.7089465395
 H        -9.8299838915       -6.8287191411        2.8851568236
 H        -8.5460873594       -3.7816537424       -0.4560412489
 H        -8.3279056332       -5.5188543827       -0.0532350681
 H        -7.8140450413       -4.3151686303        1.1411413810
 H       -10.3867717175       -4.5621243388        3.0551256287
 H       -11.3843875643       -3.4822786438        2.1253921696
 H        -9.6718798582       -3.1417898475        2.3909130902
 H       -12.6563500177       -1.6025481814       -6.0846707391
 H       -12.6944522126       -2.9180688173       -7.2426249070
 H       -11.1420323309       -2.3174889929       -6.9018038665
 H       -13.8818761838       -4.5702198889       -4.2942141331
 H       -14.2981459423       -3.7605701731       -5.8654287794
 H       -13.9406296490       -2.7765988487       -4.5596475319
 H       -10.0259543337       -6.0805088661      -10.3354775024
 H       -10.2083525676       -7.3849941602      -11.5576236806
 H        -8.5724420383       -6.9221412188      -11.1614770248
 H       -10.5050467956       -9.7345364500      -10.5673497219
 H       -11.7586781897       -8.3431965644      -10.0586828678
 H       -11.2566372252       -9.6213930449       -8.9021175593
 H        -5.2077184776       -9.3129589118       -3.8866328791
 H        -6.2742091360      -10.6918714947       -4.2135295384
 H        -6.5275897367       -9.7860013433       -2.6732923529
 H        -8.8062183185       -8.3566749299       -2.8943559626
 H        -9.0811403749       -9.9873411137       -3.7705995616
 H        -9.4743834322       -8.5159311900       -4.4885809890
 H        -0.9976073674       -5.3257875277       -2.8309141797
 H        -1.5144023526       -6.5638642651       -3.9556223910
 H        -2.0365217917       -6.6230896932       -2.3360348507
 H        -2.4325113111       -4.1462448747       -1.4435785266
 H        -4.1689429513       -3.8816193795       -1.8226734734
 H        -2.9714543218       -2.9813347223       -2.6610938888
 H        -4.6623073588       -1.4124541934       -6.4516585722
 H        -5.8217300685       -0.9481241627       -7.6567129298
 H        -4.2768440712       -1.6640365147       -8.0173780278
 H        -6.2100486083       -3.5535937783       -5.4089501166
 H        -7.5231058688       -4.0860981125       -6.5303514284
 H        -7.4253487034       -2.3682334060       -6.0457283705
 H        -4.4766838718       -3.7784674085      -13.3317417748
 H        -3.3447568372       -3.1608377580      -14.3854625055
 H        -4.6223458725       -2.1131393408      -13.9047961484
 H        -2.1242796703       -4.4422858505      -11.8119412030
 H        -1.3104757690       -2.9511732312      -11.3284010213
 H        -1.4028398448       -3.2999306802      -13.0035079508
 H         2.0231622314       -1.6866284729      -13.1120984559
 H         2.3366504097       -0.6628788362      -11.7250496364
 H         3.5050268955       -0.8321446056      -12.9302351795
 H         3.5264617074        1.6616130983      -12.6692955514
 H         1.8965745877        2.1234371856      -12.0511093282
 H         2.5251462876        2.6123972105      -13.6695835458
 H         6.0488947753        1.9171466111      -18.7212649733
 H         6.4080757318        0.3373832631      -19.4593818979
 H         7.7055406017        1.2526029841      -18.5924198306
 H         7.8074828112       -1.5498823229      -17.8878652720
 H         6.0660940008       -2.0449784293      -17.7665798933
 H         7.0501885527       -1.5738820621      -16.3191032229
 H         8.5448503737        5.0874670151      -18.1594637876
 H         7.7392269046        6.4305861485      -18.9560112345
 H         7.0739039717        4.6847818653      -19.0868494236
 H         7.1455709864        7.4372798493      -15.4877944893
 H         7.4330384556        7.9151827105      -17.1305173204
 H         8.6091005715        6.8986586074      -16.5560451288
 H         1.7378140936        3.6118405633      -17.9818230192
 H         2.6081986110        4.5902437647      -19.1409865413
 H         1.0748292337        4.0335637376      -19.6443408587
 H         0.4973869614        7.7709388138      -18.7654444488
 H         0.0437974669        6.4263972618      -19.9812250499
 H         1.6700411912        6.9143594437      -19.7413570077
 H        -1.4321577155        7.3694322079      -11.7591873498
 H        -2.5047584206        6.4293226847      -12.7550607850
 H        -2.2836995649        8.2217382772      -13.0579480210
 H         1.5039198725        8.1040096467      -13.2517249379
 H         0.4266750400        8.0120706221      -11.9602092541
 H         0.1730719267        9.2302337708      -13.2451359565
 Na        1.0960727547        3.4675849360      -15.2092774089
 Na       -7.2761845464       -6.4334471516       -7.3073364268
