232

 C         1.1540598032        5.2598494631      -12.3713518307
 C         0.0066217386        5.7323143651      -13.3750575735
 O        -0.5901003317        4.8238717826      -13.9515879493
 C        -0.4368580447        7.1806942302      -13.4631600558
 C        -0.5797336631        7.2798033914      -15.1513149420
 O         0.2392804911        7.9278297213      -15.7792318807
 C        -1.7205176812        6.6284655154      -15.8141536252
 C        -1.4226194075        6.1235612299      -17.2849225899
 C        -0.2334542701        5.1294536231      -17.4369336423
 O        -0.3501995909        4.0398878249      -16.9933687189
 C         1.1307425001        5.5962495092      -18.1565020203
 C         2.0258671808        6.0327499730      -16.9543724205
 O         2.0841089134        5.4301590802      -15.9151274521
 C         2.9113638792        7.2443648222      -17.2261348455
 C         4.3042950060        7.0365405085      -16.6118319725
 C         5.2807838024        6.2574942586      -17.5775554103
 O         4.9896799946        6.1779921933      -18.7523853710
 C         6.8030736679        5.9196436582      -17.1849710857
 C         6.7553503608        4.8699414334      -16.0287179939
 O         6.4207593197        5.1408431043      -14.8860707159
 C         7.2548150925        3.4564963946      -16.3920551795
 C         6.5656926843        2.3177410831      -15.6899370479
 C         7.1692063396        0.9298332822      -16.2266847605
 O         8.3062081954        0.5512402342      -16.0414287477
 C         6.3305128411        0.0390115922      -17.1265393249
 C         4.8558525452        0.1229262278      -16.8654769647
 O         4.0941721316        0.9561091951      -17.2825735277
 C         4.3954338411       -0.8106002834      -15.6819427327
 C         2.8402263195       -0.8916049501      -15.6459042330
 C         2.3420204421        0.4586503690      -15.1184184281
 O         2.0590691503        1.5135781128      -15.7334132025
 C         1.9206418148        0.5089263400      -13.5660053846
 C         0.2376896182        0.6624289758      -13.5708290033
 O        -0.2044223125        1.7359723679      -13.9007246885
 C        -0.5609848700       -0.4410809510      -12.8307146119
 C        -2.0885099437       -0.3649737937      -13.2439184297
 C        -2.9419337743       -1.1363922727      -12.0636929916
 O        -3.1705704026       -0.4335589020      -11.0884886838
 C        -3.3462596082       -2.6896121769      -12.1725299562
 C        -4.3123703473       -2.9235108339      -10.9440118611
 O        -3.7687381164       -2.9128316247       -9.8438768521
 C        -5.8184157187       -2.9318983183      -11.0658398808
 C        -6.4887136746       -2.4764756704       -9.8474130320
 C        -6.3090935891       -3.5590584185       -8.7620787585
 O        -6.8262240793       -4.6125983267       -8.9802808334
 C        -5.6697080594       -3.1458886188       -7.3356021944
 C        -4.6349160621       -4.3362298719       -7.2168106664
 O        -5.0860163782       -5.3977309786       -7.0490669289
 C        -3.1299759657       -4.1189197506       -7.2994133644
 C        -2.6337619071       -4.8333075211       -6.0548756900
 C        -3.2742745656       -4.2815815097       -4.7843473180
 O        -3.8695122897       -3.2438644791       -4.8737864487
 C        -3.1533577448       -5.0139738021       -3.2747989200
 C        -4.3540636396       -6.1296311626       -3.1748264949
 O        -4.2464972163       -7.1183954778       -3.7873919244
 C        -5.5973595017       -5.6515138211       -2.3907211080
 C        -6.6799505982       -6.7871642749       -2.6157049127
 C        -6.8613932871       -7.2227786091       -4.1407421071
 O        -6.7869051098       -6.3398169061       -4.9880882360
 C        -7.3051417314       -8.6231833027       -4.4098416572
 C        -7.3899787726       -8.8949888465       -5.9506160016
 O        -6.5277586766       -8.7044133871       -6.7525846966
 C        -8.6828428859       -9.6421773538       -6.5993830271
 C        -8.4844835963      -10.0043725877       -8.0472074301
 C        -8.4421561435       -8.7571268607       -8.9961934893
 O        -7.3852221004       -8.2783107352       -9.2241535156
 C        -9.8926806288       -7.9046371324       -9.3854108441
 C       -10.2354695688       -6.9637278380       -8.1926830831
 O        -9.4402551655       -6.1694100081       -7.7412912401
 C       -11.6845368674       -6.8917433856       -7.7752849570
 C       -12.2250876585       -5.4479591889       -7.2735533698
 C       -11.6027081894       -5.0315712894       -5.9829318319
 O       -10.8366359801       -5.7351848063       -5.2952188369
 C       -12.0818803846       -3.6034493513       -5.4489425993
 C       -11.1144121769       -3.3216470355       -4.1164427227
 O       -10.1741956978       -2.5559186041       -4.1495917380
 C       -11.6609090116       -4.0983225920       -2.8207469193
 C       -10.5867757286       -3.9926190016       -1.7461337659
 C       -11.1350383422       -4.0118257260       -0.2723355998
 O       -12.1632337435       -3.4987810802        0.0325224830
 C       -10.1113466499       -4.6824941384        0.7702309837
 C       -10.5752226330       -6.1873292140        0.8636920830
 O       -10.7945314915       -6.7614666212       -0.2000269804
 C       -10.7361791136       -7.0251037728        2.2434784216
 C        -8.6507745924       -4.4994203326        0.3174291637
 C       -10.2820392338       -3.8960132433        2.0705917793
 C       -11.9583030541       -2.5074396294       -6.4613804052
 C       -13.5997657845       -3.6512432289       -5.0884276549
 C        -9.6302825074       -7.0535633606      -10.6166333407
 C       -10.9677145081       -8.9651514157       -9.8038705145
 C        -6.2987401089       -9.7196740114       -3.8283314130
 C        -8.6980157167       -8.6998506977       -3.7384171551
 C        -1.9557603932       -5.9520300108       -3.2499954071
 C        -3.0068666984       -3.9112387848       -2.1830237357
 C        -5.0945195434       -1.7434146428       -7.4256070980
 C        -6.8225178267       -3.2174317837       -6.2181675477
 C        -3.9844213228       -2.8678761655      -13.6639114306
 C        -2.0489807312       -3.5862310367      -11.8685589021
 C         2.2354847180       -0.8181855109      -12.7815385004
 C         2.5001941310        1.7526808909      -12.8847637578
 C         6.5408190539        0.8402644617      -18.5072640308
 C         6.8459045954       -1.3932868400      -17.1949168644
 C         7.5323268827        5.5467346570      -18.4410473702
 C         7.5230477480        7.1012911979      -16.4999252634
 C         1.5824233413        4.3585699824      -18.8312989401
 C         0.7484532581        6.7120872190      -19.1994317290
 C        -1.7628717478        7.0824828916      -12.5969277889
 C         0.4997085941        8.3526324748      -13.1317547508
 H         0.8011282148        5.2055748243      -11.3557877968
 H         1.9801732481        6.0047044553      -12.3295441225
 H         1.6708993343        4.3056290531      -12.5842457259
 H        -2.4855626990        7.4365009105      -15.8882331234
 H        -2.2005362536        5.8718527567      -15.1676448551
 H        -1.2783853574        6.9717057152      -17.8601729181
 H        -2.3161892002        5.5602761508      -17.6490694297
 H         2.5324664902        8.2259244513      -16.9601395916
 H         3.0842300530        7.3644999679      -18.3245533906
 H         4.2259028800        6.5499284500      -15.5983888139
 H         4.8161398690        8.0040808703      -16.5413321943
 H         8.3519774613        3.4707480903      -16.0949066057
 H         7.1200414222        3.3046553119      -17.5067248390
 H         5.5217737946        2.1540500463      -15.7984396930
 H         6.8372162328        2.4327324898      -14.6332792474
 H         4.7282409823       -0.3380534661      -14.7616495194
 H         4.8677062506       -1.7548936720      -15.8649915419
 H         2.5041302647       -1.7255801290      -15.1294633469
 H         2.3666134759       -0.9772634395      -16.6425263301
 H        -0.2033819557       -0.3428956202      -11.8621076146
 H        -0.1575943767       -1.4939163842      -13.0620055652
 H        -2.3578060232       -0.8185327580      -14.2221575178
 H        -2.4558417776        0.6597964866      -13.1676962342
 H        -6.1104868661       -3.9187329015      -11.4363962622
 H        -6.0216265238       -2.2246778705      -11.9167412432
 H        -7.5568684311       -2.1908018680      -10.0797467966
 H        -6.0886940961       -1.4304758845       -9.5685540167
 H        -2.8794956482       -3.0598804371       -7.1796060234
 H        -2.5689722670       -4.5949826698       -8.0453750866
 H        -1.5657944813       -4.6198605968       -5.8932027698
 H        -2.7702316421       -5.8955316386       -6.2150390857
 H        -5.8013051743       -4.5835084440       -2.7972884570
 H        -5.3967122454       -5.5543318027       -1.2945886726
 H        -7.6353876604       -6.5064097023       -2.1858192005
 H        -6.4136923205       -7.7646824243       -1.9816309763
 H        -9.6526648380       -9.0955365896       -6.4922599969
 H        -8.7402776037      -10.5306867962       -6.0898113322
 H        -9.1943422777      -10.7758275733       -8.3921828342
 H        -7.5316563550      -10.5017226197       -8.2120015808
 H       -11.9370654170       -7.7064218149       -7.0996201280
 H       -12.2680402396       -7.0626996927       -8.6850350161
 H       -13.2989652244       -5.4669800655       -7.1829700627
 H       -12.0381465013       -4.7613693111       -8.0572594426
 H       -11.7268418853       -5.1912900068       -3.1012995199
 H       -12.6291169807       -3.6516723135       -2.4222037553
 H       -10.4892413695       -2.8765683974       -1.8670709558
 H        -9.7796766052       -4.6177266288       -2.0325686438
 H       -10.7924463793       -8.1213402933        2.0323021337
 H       -11.5584599979       -6.8271504014        2.9186642569
 H        -9.7569061364       -6.8441648412        2.8305126244
 H        -8.4791673209       -3.5948098421       -0.3436128122
 H        -8.3170212158       -5.4224256616       -0.1609153269
 H        -7.9723040008       -4.4435008672        1.2087640277
 H        -9.7874707109       -4.4673136503        2.9169385849
 H       -11.3128388204       -3.7741208267        2.2909141797
 H        -9.7628208156       -2.9774406585        2.0551401199
 H       -12.4881490793       -1.6925885975       -6.1074493886
 H       -12.4919136830       -2.9340298483       -7.3421148485
 H       -10.9291838431       -2.3300501748       -6.7270289531
 H       -13.6763980498       -4.4875174058       -4.4730691062
 H       -14.2521486107       -3.7484130001       -6.0109810649
 H       -14.0604854010       -2.7604531068       -4.6880826845
 H        -9.7276728102       -6.0251537459      -10.2003760983
 H       -10.2730077146       -7.3479898351      -11.4521661060
 H        -8.6030237306       -7.3721926634      -10.9163571580
 H       -10.3553446973       -9.6851899108      -10.2807507178
 H       -11.7209176271       -8.4532162099      -10.4664048535
 H       -11.5199823758       -9.3755960922       -8.9654782961
 H        -5.2862052586       -9.3094299984       -4.0893084322
 H        -6.2954558348      -10.7434069270       -4.2004340004
 H        -6.3822935303       -9.7412315877       -2.7620518241
 H        -8.8194246291       -8.1223613122       -2.7862242744
 H        -8.9605690897       -9.6833827379       -3.6503150719
 H        -9.5222284087       -8.3559656836       -4.4063127978
 H        -1.0287192589       -5.4836569477       -2.9514485139
 H        -1.8255434206       -6.2715181825       -4.2826522550
 H        -2.0524088644       -6.9206933827       -2.7262368499
 H        -2.3218491899       -4.3608383327       -1.4485620438
 H        -3.8916323899       -3.5241773449       -1.7334138928
 H        -2.5014201536       -3.1025951129       -2.7246669318
 H        -4.4661025552       -1.5977696677       -6.5378538114
 H        -5.7614037938       -0.9347911246       -7.5119491475
 H        -4.2954285027       -1.6482064147       -8.1262108506
 H        -6.2469756018       -3.4349378817       -5.3034680199
 H        -7.5547199465       -4.0657374690       -6.4791871357
 H        -7.3564567339       -2.2645166318       -6.0949071706
 H        -4.1738168432       -3.9105543589      -13.7646444161
 H        -3.2947292100       -2.7030747962      -14.4659689293
 H        -4.8699549158       -2.3035099313      -13.8069796640
 H        -2.3421045655       -4.5910231759      -11.5783037642
 H        -1.4656879731       -3.2135956403      -11.0468671511
 H        -1.2860037414       -3.7032872975      -12.6749949797
 H         1.8580321098       -1.7479746912      -13.2926151063
 H         2.0330367952       -0.7836056436      -11.7548333911
 H         3.2977078188       -0.9728991712      -12.8271476151
 H         3.5197906203        1.5302409580      -12.5712371449
 H         1.8529134504        2.0292558057      -12.0943988402
 H         2.6294646324        2.5460689957      -13.5491276518
 H         6.0844929459        1.8298022348      -18.5425939753
 H         6.3025002065        0.1734461557      -19.4171883508
 H         7.5911280635        1.0611243103      -18.5043150799
 H         7.7321302816       -1.3834852700      -17.8798249667
 H         6.1389566725       -2.0328087885      -17.5942364256
 H         7.3057797272       -1.7377404336      -16.2093023116
 H         8.5201168851        5.0994141815      -18.2535789389
 H         7.5951349465        6.5120928909      -19.0111323848
 H         6.9791983007        4.7406674161      -19.0052587447
 H         6.9878411945        7.1737496789      -15.4565981373
 H         7.3735746490        8.1324113506      -16.9448131818
 H         8.6331049081        6.9292390972      -16.4990554185
 H         1.8721141575        3.5641844618      -18.1675630400
 H         2.4258228044        4.6776473769      -19.5957646665
 H         0.8113502956        4.0084364711      -19.5128845539
 H         0.1445076102        7.6080492616      -18.9992324422
 H         0.2389666215        6.0628760285      -19.8969710488
 H         1.6222275748        6.9455718622      -19.8234645122
 H        -1.3958924108        6.7528437766      -11.5946592203
 H        -2.5094597619        6.2744112835      -12.8505653345
 H        -2.3478027892        8.0564227128      -12.5681037382
 H         1.3610694022        8.1666637682      -13.7342695696
 H         0.7443413276        8.3911575078      -12.0995707974
 H        -0.0272554698        9.1985357623      -13.4107240484
 Na        1.1178492353        3.5615597223      -15.0551897068
 Na       -7.2132050733       -6.4544954432       -7.3682847998
