232

 C         1.7506678221        5.8253628615      -12.9673807434
 C         0.2607821183        5.7084716493      -13.2304211714
 O        -0.2453888103        4.6693833135      -13.5617434431
 C        -0.5479471764        7.0652788443      -13.4709684858
 C        -0.7033540952        7.1583239922      -15.1165310242
 O        -0.0511511945        7.9246113560      -15.8396216199
 C        -1.8422897046        6.4079831683      -15.7791836179
 C        -1.5249491560        6.2009898781      -17.2702281909
 C        -0.3528645255        5.2597261062      -17.2929031583
 O        -0.5085516748        4.2133928332      -16.6967750392
 C         0.9481984871        5.5183058897      -18.0722333029
 C         1.9817974341        5.9362353261      -16.9861968265
 O         2.1469987992        5.2554925316      -16.0465456043
 C         2.8911578119        7.1709270284      -17.2702839365
 C         4.3626312744        6.9256852988      -16.6614218845
 C         5.3774575018        6.2072807895      -17.6326186803
 O         5.0195609948        5.8311444314      -18.7409839854
 C         6.8233644659        6.0496545747      -17.1136490576
 C         6.7220312187        4.8827162929      -16.0785982821
 O         6.1067848873        5.0430010155      -15.0264783703
 C         7.3483066771        3.5217726349      -16.6358492934
 C         6.8219878354        2.3726028328      -15.7506193640
 C         7.3615217948        1.0066824113      -16.1903612011
 O         8.4743581332        0.6036368492      -15.9258756011
 C         6.3571539121       -0.0295631712      -17.0870349093
 C         4.8975446913        0.0300633267      -16.7463642709
 O         4.1866368932        0.7521367433      -17.3752306650
 C         4.3055758648       -0.9215482548      -15.6552023094
 C         2.7299496260       -0.8312275442      -15.7046710776
 C         2.1904022110        0.4164543610      -14.9500363794
 O         1.9428497884        1.4328020952      -15.6160134972
 C         1.7161026891        0.3669274140      -13.4925670313
 C         0.1283416851        0.5524961161      -13.5266414162
 O        -0.3607468983        1.5523150738      -13.9949329139
 C        -0.7974489398       -0.5686735001      -12.9888857572
 C        -2.2757944940       -0.2712428693      -13.1131655261
 C        -2.9119879183       -1.0545827044      -11.8725257744
 O        -2.9444697861       -0.4557585961      -10.8324716080
 C        -3.3948272289       -2.6045459935      -12.0874804720
 C        -4.4149983903       -2.8301447839      -10.9517973447
 O        -3.9977075683       -2.9849776499       -9.7932755635
 C        -5.8759339799       -2.6292515974      -11.1273523053
 C        -6.6460194369       -2.3390807049       -9.8593086952
 C        -6.4716798095       -3.3828584378       -8.7823464583
 O        -6.9183862265       -4.4659851857       -8.9226691156
 C        -5.6867275230       -3.1020059887       -7.4119977196
 C        -4.5259444492       -4.2830545366       -7.1996621440
 O        -4.8347363453       -5.3989356630       -7.2169869064
 C        -3.0005164964       -3.8938337773       -7.2151816754
 C        -2.3844598196       -4.5139720081       -5.9923320060
 C        -3.0951964228       -4.2383476123       -4.6133602419
 O        -3.9564180331       -3.3984999553       -4.5880628627
 C        -2.9210713183       -5.2020385493       -3.3141137855
 C        -4.1601020743       -6.1922570426       -3.3700062794
 O        -4.1031862177       -7.2046427292       -3.9678152971
 C        -5.4804900539       -5.5170994410       -2.9689993288
 C        -6.6844591687       -6.4433089946       -2.7676584501
 C        -7.0619352516       -7.0979906517       -4.1891283189
 O        -6.9723687079       -6.3527942875       -5.1547610597
 C        -7.5176297258       -8.5151330038       -4.2965739650
 C        -7.6086694563       -8.7916938908       -5.9889450980
 O        -6.6419513277       -8.5140286162       -6.6448667938
 C        -8.8334804903       -9.5456930491       -6.5786270497
 C        -8.5467960411       -9.8651673974       -8.0635347435
 C        -8.4448569325       -8.6186632752       -8.9458698721
 O        -7.3587438184       -8.1982128028       -9.2746181771
 C        -9.8472597160       -7.9591300767       -9.3533235712
 C       -10.2079146424       -7.0044917164       -8.1509609301
 O        -9.4450640151       -6.2502898259       -7.6434829237
 C       -11.7219035134       -6.9210653834       -7.7292476952
 C       -12.1439131524       -5.5611126615       -7.3515130205
 C       -11.4979481808       -5.0287228920       -6.0606864373
 O       -10.7259228787       -5.7565207295       -5.4161114332
 C       -11.8203624828       -3.5792994474       -5.4897159847
 C       -11.0929350196       -3.3048177103       -4.1511748642
 O       -10.0591750057       -2.6686629381       -4.1138448114
 C       -11.6026647501       -3.8402008936       -2.8234221600
 C       -10.5214625849       -3.4415045121       -1.7300596873
 C       -11.0940755237       -3.8712945465       -0.3074634505
 O       -12.1040807466       -3.4036841400        0.0381847054
 C       -10.1616087344       -4.6309507976        0.7801235251
 C       -10.6391259961       -6.0599240124        0.8226811613
 O       -10.7294240471       -6.7152642055       -0.2253602911
 C       -10.8715705589       -6.7332909918        2.1880771652
 C        -8.6613888417       -4.8025957887        0.4765471173
 C       -10.4064970079       -3.9461001044        2.0860550110
 C       -11.4328635385       -2.5776764490       -6.5367177067
 C       -13.4210107252       -3.4095971624       -5.3852636851
 C        -9.8790244888       -7.0836940696      -10.6689867092
 C       -10.8637473463       -9.0425019783       -9.5812827515
 C        -6.4482466705       -9.5554883858       -3.7918346272
 C        -8.9267034473       -8.7388914497       -3.6583056620
 C        -1.6507308717       -6.0207013846       -3.4422107291
 C        -2.8889668043       -4.3943444598       -1.8935322201
 C        -5.0709286610       -1.7064015894       -7.2663895049
 C        -6.7382585812       -3.3791998351       -6.2700188250
 C        -3.9632384391       -2.9079812963      -13.4905835341
 C        -2.1379046223       -3.4618997072      -11.7403598600
 C         2.0939791904       -0.9414220838      -12.8350425807
 C         2.4870561102        1.5443915436      -12.7793794989
 C         6.4229212206        0.3375828297      -18.5915114685
 C         6.9581792980       -1.5008076422      -16.9221535710
 C         7.7611311394        5.8424167816      -18.3123238622
 C         7.3340400048        7.3334518573      -16.5068381106
 C         1.4514304518        4.1267914744      -18.6397678684
 C         0.6451581853        6.4461698174      -19.2306093071
 C        -1.9142929538        7.1763506956      -12.7817421213
 C         0.3852768956        8.2403709001      -12.9358994193
 H         2.0381224770        6.3950266944      -12.1064564568
 H         2.3985217933        6.0804128858      -13.8225651095
 H         2.0120798825        4.8058168579      -12.6756102975
 H        -2.7627278762        6.9800465905      -15.6301528552
 H        -2.0492811338        5.4319920994      -15.3159433248
 H        -1.2989954080        7.0854939167      -17.7603990719
 H        -2.3771744225        5.7490230130      -17.8187978208
 H         2.3673269557        8.0804321059      -16.9909201356
 H         3.0963799278        7.3339159395      -18.3391588528
 H         4.3719204371        6.4605986754      -15.6803399085
 H         4.8675824556        7.8921710047      -16.5999129114
 H         8.3676276204        3.6697027577      -16.6807382130
 H         6.8946198951        3.3374619210      -17.6027929888
 H         5.7293347717        2.3521499051      -15.5693998965
 H         7.3405828997        2.5015876898      -14.7962368446
 H         4.7346252576       -0.4952969370      -14.7172207936
 H         4.5564246235       -1.9161414951      -16.0174267800
 H         2.2489145521       -1.7478375203      -15.3043457549
 H         2.5208623745       -0.8134639111      -16.7445611962
 H        -0.3801713933       -0.8564345736      -12.0156386243
 H        -0.6039824885       -1.4955758212      -13.5137247778
 H        -2.8081396368       -0.5284992760      -14.0207134286
 H        -2.5248859341        0.7758356095      -12.9177749576
 H        -6.3941275845       -3.3813483742      -11.7008325940
 H        -5.7996884244       -1.7743392936      -11.8372665379
 H        -7.6685120878       -2.3741575424      -10.0186086108
 H        -6.3860978620       -1.3675288483       -9.5282597929
 H        -2.7897711955       -2.7915658370       -7.0777081454
 H        -2.5432154161       -4.4263781960       -8.0324751650
 H        -1.4385845111       -3.9895386631       -5.8759524674
 H        -2.2781150627       -5.6346596635       -6.1798492330
 H        -5.7747366746       -4.9288790029       -3.7922946854
 H        -5.2444331081       -4.8709932090       -2.1913604818
 H        -7.6069806341       -5.9977199318       -2.4152988146
 H        -6.4895322650       -7.3227186432       -1.9781720292
 H        -9.8052137678       -9.0182134504       -6.3512662962
 H        -8.8641619211      -10.4827814170       -5.9480559140
 H        -9.3702835074      -10.4604179807       -8.4985304296
 H        -7.6076306149      -10.4534495411       -8.2325577811
 H       -11.8578044857       -7.5198871834       -6.8497380444
 H       -12.4547465194       -7.3331157869       -8.4424529858
 H       -13.2766341199       -5.5565564144       -7.3518088174
 H       -11.8725271031       -4.8509824519       -8.1783653100
 H       -11.6345405727       -4.9022806419       -2.7456816270
 H       -12.5144620693       -3.3412399652       -2.5438387581
 H       -10.3485338565       -2.3959487698       -1.7780185956
 H        -9.6412823467       -4.0732398560       -2.0098424541
 H       -10.8921278462       -7.7594565903        1.8994059702
 H       -11.7369547056       -6.5935778344        2.7251368539
 H       -10.0130078591       -6.6294630496        2.8504460137
 H        -8.1188553534       -3.8870274116        0.5888251031
 H        -8.5388151516       -5.0923109189       -0.5053444626
 H        -8.1527390737       -5.6013476903        1.0727996805
 H        -9.6021476721       -4.0561431890        2.8656759281
 H       -11.3604822748       -4.2078885731        2.4447812172
 H       -10.3998948130       -2.8812779942        1.8764285251
 H       -11.4583274851       -1.6005247624       -6.1576599905
 H       -12.1547485149       -2.6703373905       -7.3624284936
 H       -10.3764377468       -2.8763358833       -6.8056409502
 H       -13.8131248831       -4.1857878684       -4.7994372648
 H       -14.0367733953       -3.1735344845       -6.2960031320
 H       -13.5527695908       -2.4550897010       -4.8573483127
 H        -8.8780461857       -6.8655871821      -10.9295509588
 H       -10.4896164481       -6.2958743557      -10.3794697454
 H       -10.4965075022       -7.5925576810      -11.3944100374
 H       -10.4409429205       -9.6808175175      -10.3586996441
 H       -11.8475139164       -8.6001513928       -9.9530338038
 H       -11.0349381294       -9.4513775281       -8.6142004281
 H        -5.5574398955       -9.6387923373       -4.4957991037
 H        -6.9570871338      -10.5272887485       -3.8563539900
 H        -6.0942110833       -9.4791890303       -2.7937123629
 H        -8.7855815122       -9.1038158433       -2.6033788696
 H        -9.5477814199       -9.4132465879       -4.2259916035
 H        -9.4650659016       -7.8129182044       -3.4454426483
 H        -1.0177116579       -5.7453715023       -4.2400517807
 H        -1.9366215500       -7.0836140874       -3.5978293303
 H        -1.0354356020       -6.0271143798       -2.5583171441
 H        -3.3990217613       -4.9818909401       -1.1379751066
 H        -3.3463609973       -3.3945444825       -2.0247602915
 H        -1.8744280018       -4.3001390145       -1.6400256787
 H        -4.5570978207       -1.3879049819       -6.3713792067
 H        -5.9181214343       -1.0320695800       -7.5162045949
 H        -4.2763829418       -1.5241175940       -7.9989001582
 H        -6.4043161773       -2.9487790841       -5.3694902355
 H        -6.8183572300       -4.4582799321       -6.2221626166
 H        -7.6668366738       -2.9349404594       -6.5141063899
 H        -4.4942522412       -3.8851190372      -13.4501152474
 H        -3.2008321428       -3.0822391233      -14.2616248627
 H        -4.7050865676       -2.1134030171      -13.7689730025
 H        -2.0481595081       -4.5091178022      -11.9372941565
 H        -1.7521881145       -3.3279926107      -10.7335610884
 H        -1.3999901021       -2.9943115760      -12.4665408274
 H         1.4712688084       -1.7510493769      -13.3687515328
 H         1.8179975347       -0.8247885357      -11.8526516207
 H         3.1314302362       -1.2774800629      -12.8878901220
 H         3.5856919000        1.3430565471      -13.0651237191
 H         2.2473193978        1.4665588991      -11.7233554215
 H         2.2061622454        2.5803669305      -13.0491460179
 H         6.1984467873        1.3396801928      -18.8220437047
 H         5.7116678654       -0.3614001552      -19.0212705262
 H         7.4052000353        0.1441975913      -19.0178711371
 H         8.1000020653       -1.4114962655      -16.8962968915
 H         6.6784165263       -2.0937582109      -17.7224589596
 H         6.6709909273       -2.0212534005      -15.9935605384
 H         8.6704298553        5.4912686067      -17.9236459664
 H         7.7267236248        6.6931378828      -18.9163073065
 H         7.4605045261        5.0481281100      -19.0210259839
 H         6.6492488216        7.6645805427      -15.7481634062
 H         7.2234425334        8.0768099290      -17.1834906486
 H         8.2840402634        7.2515270895      -16.1510669079
 H         1.2628305528        3.3813344847      -17.9864942022
 H         2.5175033326        4.2221066989      -18.9970773981
 H         0.8309733897        3.8260314315      -19.4547432299
 H         0.5429824978        7.3964583242      -18.7221820042
 H        -0.3634317517        6.4582633462      -19.6625356277
 H         1.3958389750        6.3562659667      -19.9967613549
 H        -1.9052180801        6.9283393427      -11.7928604153
 H        -2.6246228479        6.4751922863      -13.2414172723
 H        -2.3446903627        8.1127617821      -12.9884605080
 H         1.2928468633        8.1322721349      -13.4899732225
 H         0.5469046513        8.1518382757      -11.8116607128
 H        -0.1364103434        9.1926468151      -13.0149075189
 Na        0.9031419054        3.2965201459      -15.1985835297
 Na       -6.8027219624       -6.4774343152       -7.7331389905
