232

 C         1.8798809996        5.9975327566      -13.3519018061
 C         0.4052769925        5.9061257084      -13.3564499522
 O        -0.1002935035        4.7914394522      -13.1917801489
 C        -0.5630906107        7.1455759450      -13.4855363293
 C        -0.6482777767        7.3076313002      -15.0258890974
 O         0.0961134483        7.9701780481      -15.7106723736
 C        -1.8454004370        6.6089433532      -15.6356222604
 C        -1.6489218905        6.2088911969      -17.0978577524
 C        -0.5247209056        5.1276352145      -17.2423437965
 O        -0.8727660484        4.1040399546      -16.6241759480
 C         0.8345248707        5.3308730624      -18.0222575452
 C         1.9492679724        5.7965135535      -17.0745737748
 O         2.2520702866        4.9944861669      -16.1228866748
 C         2.8534377419        7.0139238780      -17.1893119330
 C         4.3554221601        6.9783273973      -16.8465188182
 C         5.3624887398        6.2150523595      -17.7987711704
 O         4.9795350520        5.5344065823      -18.7249929448
 C         6.8354286218        6.1902561638      -17.1773115641
 C         6.6960541105        4.7815714864      -16.3186432742
 O         6.0625036575        4.8590136788      -15.2909711058
 C         7.1958566354        3.4262815954      -16.8221940310
 C         6.6601578562        2.3355468535      -15.9295710853
 C         7.3251959071        0.9338932266      -16.1685188145
 O         8.4867702001        0.7335754721      -15.9395478837
 C         6.4557190848       -0.0881083077      -17.0772507472
 C         4.9244335613       -0.0060975891      -16.8053628249
 O         4.2602795617        0.8749252899      -17.3388518681
 C         4.2688236662       -1.0214410559      -15.7436594558
 C         2.7578646139       -1.0394660633      -15.7322067772
 C         2.2052889052        0.2757111919      -15.0473157330
 O         2.0544258347        1.2857123408      -15.6493255897
 C         1.6805473082        0.2067825757      -13.5572215527
 C         0.1105555639        0.4056690752      -13.5610197712
 O        -0.3923711188        1.4683179809      -13.9091681159
 C        -0.7790674229       -0.7004084098      -13.0395242057
 C        -2.2676744337       -0.2887394044      -12.9730121565
 C        -2.8881292459       -1.0119297689      -11.7366119329
 O        -2.9159427741       -0.4305853530      -10.6951379598
 C        -3.4661905392       -2.4562112738      -12.0006757921
 C        -4.4777957513       -2.8372794764      -10.9165382014
 O        -4.1988409400       -3.4764532537       -9.9444873173
 C        -5.9359575169       -2.3013823188      -11.0229256501
 C        -6.7132808216       -2.1023539769       -9.7443686079
 C        -6.3769215722       -3.3102650578       -8.7337979633
 O        -6.9491327822       -4.3552853111       -9.1314640817
 C        -5.6575254951       -3.0695516376       -7.3942857182
 C        -4.4419751436       -4.0899554443       -7.2430380028
 O        -4.6664927999       -5.3015232650       -7.5596217800
 C        -2.9995428573       -3.5368012926       -6.9854729653
 C        -2.1981831588       -4.4184061895       -5.8435988982
 C        -2.9401200348       -4.2943723831       -4.4742837442
 O        -3.8611737547       -3.4866207148       -4.2855825668
 C        -2.6950322853       -5.2583512087       -3.3214613041
 C        -4.0645885540       -6.1463356069       -3.5072998972
 O        -4.0157569050       -7.3376446125       -3.8781200067
 C        -5.4403662389       -5.5014374351       -3.2289712665
 C        -6.5954116041       -6.4287776786       -3.0834629448
 C        -7.1706406983       -6.9298575344       -4.3437213801
 O        -7.3144901965       -6.3148596522       -5.3787393600
 C        -7.6215549285       -8.4927094802       -4.3227971960
 C        -7.6325203625       -8.8361207228       -5.8494681611
 O        -6.6559583870       -8.5840259373       -6.5545564720
 C        -8.8982711153       -9.5346788658       -6.6669533092
 C        -8.4580772396       -9.8677736012       -8.1046154560
 C        -8.5898671324       -8.6462127434       -9.0684216128
 O        -7.5683097593       -8.0131080036       -9.3981861878
 C        -9.9019276387       -8.0986381888       -9.3757389017
 C       -10.2377879908       -7.0660902492       -8.1820971743
 O        -9.2662181941       -6.4851145609       -7.7422974051
 C       -11.6325866752       -6.8613846491       -7.7743890523
 C       -12.0064479565       -5.4328114193       -7.2115389406
 C       -11.4916509506       -5.0015497173       -5.8411774444
 O       -10.8677226633       -5.6818005462       -5.0891261533
 C       -11.7674226478       -3.5260600947       -5.4909646483
 C       -10.8584621023       -3.1674212881       -4.2122926880
 O        -9.7671175400       -2.6419976968       -4.3192056526
 C       -11.4394660190       -3.6146749151       -2.8955327021
 C       -10.4383720575       -3.5457360348       -1.7202830290
 C       -11.0640103806       -3.8180251246       -0.3398261176
 O       -12.1834458622       -3.4633210893        0.0493882641
 C       -10.1694200454       -4.6026819840        0.8594589621
 C       -10.7537125022       -6.0772700137        0.7679470686
 O       -10.7577630149       -6.6572604444       -0.2633307095
 C       -11.1162146677       -6.8304680852        1.9966251147
 C        -8.6577811321       -4.5029179050        0.5324919651
 C       -10.3571279505       -3.8027327618        2.2117546726
 C       -11.1009889276       -2.6528996760       -6.6573257821
 C       -13.2222280158       -3.2602599963       -5.3344939122
 C        -9.7323463418       -7.1526816880      -10.6337276868
 C       -10.9951090383       -9.2663784549       -9.5411506769
 C        -6.5299328180       -9.4367036475       -3.5895012772
 C        -9.0436443830       -8.6677785521       -3.6579578954
 C        -1.5125562397       -6.2000237041       -3.4132000464
 C        -2.7757034412       -4.5418696466       -2.0246378355
 C        -5.3364978704       -1.5854126533       -7.2050341969
 C        -6.7131526503       -3.3965762778       -6.2659121193
 C        -4.0376854573       -2.7702745928      -13.4424127536
 C        -2.1397671272       -3.2766948010      -11.7040804860
 C         2.1187988154       -1.0157115132      -12.8036585284
 C         2.1103427811        1.5036116118      -12.6964308819
 C         6.9290056411        0.2298931652      -18.5063572809
 C         7.0344467086       -1.4835186358      -16.6245666104
 C         7.9296998285        6.0315403578      -18.3193233784
 C         7.1315752614        7.2819782650      -16.1275530014
 C         1.3317643932        3.9776156297      -18.6798805083
 C         0.8031577958        6.3582640563      -19.1708140644
 C        -1.9496809107        6.7937489869      -12.7456502244
 C         0.0580155000        8.5332756593      -13.0495220082
 H         2.2839110145        6.7304037468      -12.5815683704
 H         2.1398098381        6.4211554731      -14.3377363175
 H         2.4629227787        5.0677252265      -13.1972841787
 H        -2.6748490958        7.3495137300      -15.6510604892
 H        -2.2229312377        5.7795500730      -15.0217089279
 H        -1.6239574759        7.1677339077      -17.7327489750
 H        -2.5632877843        5.7947964178      -17.4648619992
 H         2.4498404404        7.8686337946      -16.6074242638
 H         2.7734400556        7.3815732743      -18.2058654959
 H         4.4114000560        6.4439644007      -15.8598642766
 H         4.7287838481        8.0040306550      -16.6406196475
 H         8.3388358179        3.6381915276      -16.6672686948
 H         6.9538291473        3.2152658636      -17.8832427112
 H         5.5967904121        2.2037890794      -16.1024075552
 H         6.7797904318        2.6846712296      -14.9101184557
 H         4.5282128870       -0.4587745597      -14.8986228959
 H         4.6262566174       -2.0236142095      -15.8491432251
 H         2.4769539320       -1.9248376976      -15.1007248804
 H         2.3889872494       -1.1747606939      -16.7532560165
 H        -0.2729697083       -0.9211979232      -12.0927358106
 H        -0.5899563331       -1.6499890522      -13.5815537540
 H        -2.8817647136       -0.6007782019      -13.8319206451
 H        -2.4851193481        0.7941728367      -12.9310281806
 H        -6.4297648316       -3.1160941010      -11.6175052822
 H        -6.0403863699       -1.4486608276      -11.6887317753
 H        -7.8459988433       -2.1066043194      -10.1129810624
 H        -6.3552776027       -1.0876162894       -9.3518637118
 H        -3.0401609179       -2.6150275887       -6.5289065668
 H        -2.4920001395       -3.5802606402       -7.9535707711
 H        -1.1519776337       -4.0607750603       -5.7238486933
 H        -2.3294167540       -5.4432847981       -6.0302092674
 H        -5.6339901901       -4.7507916858       -4.0693620904
 H        -5.3221386429       -4.9347000471       -2.2210717326
 H        -7.4863074879       -5.9829593336       -2.5267589618
 H        -6.3281218192       -7.2184719958       -2.5091415642
 H        -9.7366717700       -8.9011215905       -6.5084713455
 H        -9.2189151796      -10.4701571681       -6.2377002942
 H        -8.9909441140      -10.7972756905       -8.3526508222
 H        -7.3685900613       -9.9966502489       -8.0979904377
 H       -12.0350957741       -7.6321772415       -7.1035046610
 H       -12.1707225756       -7.0454157165       -8.6873413304
 H       -13.0508620656       -5.5043357179       -7.0125776250
 H       -11.9066934023       -4.6753947903       -7.9629974030
 H       -11.7424203293       -4.6989545510       -2.9596574991
 H       -12.2178595771       -2.9009222615       -2.5267663132
 H       -10.1456064772       -2.4517772698       -1.6317551994
 H        -9.5207641612       -4.1224645353       -1.9304826578
 H       -11.0858272639       -7.9298062486        1.9130471991
 H       -12.2187630831       -6.6437533492        2.2948459932
 H       -10.4733467881       -6.4972181189        2.7966882748
 H        -8.4919250540       -3.4470614941        0.1708552697
 H        -8.1910132901       -5.1785496923       -0.3058269889
 H        -8.0157280553       -4.6094020573        1.3998362550
 H       -10.4214484296       -4.4301504890        3.0385915190
 H       -11.2960534497       -3.1984609345        2.1260024814
 H        -9.5308104302       -3.1134787045        2.3884056461
 H       -11.1444332863       -1.6274868724       -6.2169549290
 H       -11.6070300201       -2.6225425099       -7.5787511089
 H       -10.0931040271       -2.9119984159       -6.6324641702
 H       -13.6648365119       -3.9134967066       -4.4968894093
 H       -13.6930082086       -3.5728501626       -6.2454869896
 H       -13.5114813341       -2.1995375869       -5.1830571960
 H        -9.5773205196       -7.8952784703      -11.4357581661
 H        -8.8768334465       -6.4742250939      -10.3452312701
 H       -10.6389499397       -6.5526787580      -10.6936509539
 H       -10.5293171971       -9.9859257094      -10.2573960618
 H       -11.8141882239       -8.8474208265      -10.0739274920
 H       -11.2583675234       -9.6781860844       -8.5249985683
 H        -5.4903537037       -9.2262739868       -3.8205365345
 H        -6.7222736105      -10.5249948391       -3.7160916984
 H        -6.6771445405       -9.2815293236       -2.4620298319
 H        -9.1489331609       -8.4186646604       -2.6295200738
 H        -9.1888899261       -9.8087521543       -3.7438537625
 H        -9.8388083811       -8.1009790248       -4.1396281043
 H        -0.8335206843       -6.0462117460       -4.2772578613
 H        -1.8333546448       -7.2101282085       -3.5402749458
 H        -0.8835653478       -6.1733230919       -2.5388634184
 H        -2.8426258386       -5.3144940354       -1.2813184664
 H        -3.7072113988       -4.0021190302       -2.0841342740
 H        -1.8985261725       -3.9167585586       -1.8272179121
 H        -4.7559157679       -1.4477432989       -6.3005585146
 H        -6.1944993811       -0.9607515793       -7.1099384400
 H        -4.6538784048       -1.2440325291       -7.9622032512
 H        -6.2431092588       -3.2173448767       -5.2642385790
 H        -7.0921375383       -4.3830228072       -6.3629728902
 H        -7.4740512591       -2.5884675234       -6.3736934875
 H        -4.8582117927       -3.4534449624      -13.5141179253
 H        -3.1926064190       -3.1331188119      -13.9980839157
 H        -4.3558315103       -1.8784936530      -13.9140411998
 H        -2.4022213675       -4.3237415457      -11.4051576520
 H        -1.6946220974       -2.9377378943      -10.7352702720
 H        -1.4074722284       -3.4253780787      -12.4719195233
 H         1.7911596480       -1.8393656693      -13.3107823586
 H         1.7995162880       -0.9814303737      -11.7175199434
 H         3.2028903738       -1.0142464749      -12.8537620235
 H         3.0733976339        1.8419005376      -12.8790332489
 H         1.8958534677        1.2897915804      -11.6491926478
 H         1.3648915671        2.2711220234      -12.8451166975
 H         6.5585333365        1.2912707439      -18.7008095764
 H         6.5281738337       -0.4406483891      -19.2369960838
 H         8.0468729542        0.2712792293      -18.5665851270
 H         8.0442198536       -1.6434097690      -16.9208383503
 H         6.3346472706       -2.3028405639      -17.0804463578
 H         6.9250808705       -1.6275830905      -15.5624549623
 H         8.8600605564        5.5945025158      -17.8887466613
 H         7.9499968904        6.9732642106      -18.8953231677
 H         7.6307508073        5.3749203750      -19.1093645719
 H         6.7313959592        7.0414613470      -15.1111398597
 H         6.7435895795        8.3283308183      -16.3453955261
 H         8.2915219213        7.2175126909      -15.9818108962
 H         1.1360233224        3.1614282150      -17.9058215291
 H         2.3511142565        4.0650233591      -18.8959256606
 H         0.7036679321        3.5439878280      -19.5168995484
 H         0.1907906175        7.1556503178      -18.8400681218
 H         0.1471599174        6.0493863827      -19.9375986457
 H         1.7734341220        6.5481044508      -19.5656792387
 H        -1.9808310159        7.1870598430      -11.6748794743
 H        -2.0829117919        5.6816228376      -12.6649850944
 H        -2.8794352485        7.1523203712      -13.2781648381
 H         0.9752944496        8.6752403253      -13.5277912089
 H         0.0674883526        8.6622539966      -12.0174959780
 H        -0.6593267699        9.2530602367      -13.4361492180
 Na        0.8019374056        3.2430555790      -15.2381774729
 Na       -6.8820965818       -6.4178316726       -7.7591027177
