232

 C         2.0363813302        6.9158882368      -13.4564387323
 C         0.7519624506        6.2015487990      -13.4470105436
 O         0.5553471308        4.9892328472      -13.5186570473
 C        -0.5290404315        7.1824636624      -13.3812021374
 C        -0.6871582726        7.2392386439      -14.9555107497
 O         0.2333173928        7.7379948198      -15.5877902624
 C        -1.8207627355        6.6184227656      -15.6766734577
 C        -1.5458530358        6.2586958149      -17.1350187711
 C        -0.6354589412        5.0809856382      -17.1638518679
 O        -0.7900497263        4.2467470433      -16.2822889728
 C         0.5824318522        4.9942877201      -18.2241672568
 C         1.8682542879        5.4429464744      -17.3286621754
 O         2.0811148440        4.8004884054      -16.2671587587
 C         2.6631976823        6.6910122586      -17.5090525501
 C         3.9794611522        6.6297519590      -16.6827693760
 C         5.1480979008        6.1255610050      -17.5532847251
 O         4.8991980940        5.8894139085      -18.7429505797
 C         6.6292948998        6.1039865914      -17.0830724331
 C         6.5180242839        4.7930600862      -16.2118038552
 O         5.9690737188        4.8741873303      -15.1091708799
 C         7.0632656932        3.5244436509      -16.8681717674
 C         6.6548527829        2.2807749627      -16.1414406805
 C         7.3091460117        0.9125854601      -16.2753904113
 O         8.3613800224        0.7716709671      -15.6869389938
 C         6.7100628473       -0.3618144429      -16.9728835768
 C         5.0970428599       -0.2327968955      -16.7241060448
 O         4.4417012861        0.3456642347      -17.5717231150
 C         4.3189457281       -1.1254199780      -15.6511081631
 C         2.8239262940       -0.8545292919      -15.8527422239
 C         2.2828260338        0.3624584879      -15.1271728924
 O         2.1399705881        1.4069207523      -15.7205967937
 C         1.7492733906        0.2706512065      -13.6260612826
 C         0.1396975067        0.3733659924      -13.6299456437
 O        -0.4438329169        1.2326485157      -14.2907551033
 C        -0.6619460479       -0.7158824895      -12.9964095583
 C        -2.1094913231       -0.2182972265      -12.5428842222
 C        -3.0067416275       -1.0843696710      -11.6961643394
 O        -3.3503962670       -0.6319176081      -10.6273706779
 C        -3.5108195559       -2.5163084178      -12.0716993633
 C        -4.6336590809       -2.8429747400      -10.9550878356
 O        -4.3918868648       -3.5749620364       -9.9922715737
 C        -5.8709037536       -1.9429524504      -11.0017352118
 C        -6.7607865922       -1.8147622861       -9.7611416289
 C        -6.6139056152       -2.9758786411       -8.6530840423
 O        -7.1240787181       -4.0785610540       -8.8156952603
 C        -5.8721844126       -2.7709827765       -7.2664668982
 C        -4.6140919777       -3.8899004223       -7.2081313421
 O        -4.9102395079       -5.0521523512       -7.2681021338
 C        -3.1613302047       -3.5666348368       -7.0277544720
 C        -2.5675098624       -4.4899979166       -5.8847703100
 C        -2.9611476524       -4.2244709075       -4.4580935355
 O        -3.2120550001       -3.1010877438       -4.0127875553
 C        -2.7327285010       -5.4311353880       -3.4892040933
 C        -4.0767063901       -6.2462363048       -3.3400785643
 O        -4.0658030588       -7.4553784742       -3.3614921938
 C        -5.3968190722       -5.4735946237       -3.1594050669
 C        -6.6224157966       -6.4534900164       -3.1259073371
 C        -7.1048746747       -6.9863291010       -4.4241921226
 O        -7.1927434138       -6.2505067924       -5.3567385364
 C        -7.6982168687       -8.4290463190       -4.6017417319
 C        -7.4255188683       -8.9682009072       -6.1105435112
 O        -6.4749757447       -8.6491822989       -6.8101137175
 C        -8.5786764469       -9.8803791752       -6.7477610728
 C        -8.3973073593      -10.0655937428       -8.1610567881
 C        -8.5338977882       -8.7012183153       -8.9970685667
 O        -7.5847770842       -7.9872605036       -9.2425269985
 C        -9.9759093486       -8.1781534069       -9.1698091399
 C       -10.1235435085       -7.0265834310       -8.1281249602
 O        -9.2229662770       -6.2517094913       -7.9637516322
 C       -11.4684058963       -6.8164544910       -7.5775912043
 C       -11.9386358266       -5.3320519018       -7.2276988804
 C       -11.5370827795       -4.9227471148       -5.8215238593
 O       -11.3146792433       -5.7792514780       -4.9657646564
 C       -11.3641302047       -3.3341278142       -5.5465512388
 C       -10.5369323987       -3.0684037116       -4.2228972207
 O        -9.3651291368       -2.7810193126       -4.2314496397
 C       -11.1930111371       -3.2394594295       -2.8156613531
 C       -10.3173765721       -3.8200636922       -1.7225103299
 C       -11.0060157370       -3.7495647537       -0.4246644324
 O       -12.0653896471       -3.2287306377       -0.2766012465
 C       -10.1524359709       -4.4642521172        0.8855067452
 C       -10.6080517932       -5.9907354461        0.6040209577
 O       -10.2030172813       -6.5324803426       -0.3739489003
 C       -11.6175051135       -6.6155226057        1.5771501721
 C        -8.6629181682       -4.4270338974        0.8972175273
 C       -10.8240456315       -3.6917288803        2.0629647554
 C       -10.5319462054       -2.7430477901       -6.6597023458
 C       -12.8107931022       -2.8405946038       -5.2439400924
 C        -9.8766826157       -7.3587581928      -10.5025679588
 C       -11.0513203748       -9.2561262352       -9.1758445472
 C        -7.0027390700       -9.4888428016       -3.6371366754
 C        -9.2440338734       -8.4198256051       -4.2069588458
 C        -1.6415982586       -6.3850941317       -4.0046607058
 C        -2.5392417782       -4.9290125164       -1.8844966470
 C        -5.2982266405       -1.3417576531       -7.1318532097
 C        -6.8803952217       -3.1072797658       -6.1240689512
 C        -3.9781958174       -2.7025477899      -13.5527609002
 C        -2.3177886402       -3.3874700346      -11.7675205129
 C         2.1789564303       -1.1265138859      -13.0482433488
 C         2.4294561990        1.3915247915      -12.8253905766
 C         6.9596038111       -0.2569743878      -18.5386017914
 C         7.3954507366       -1.5755982123      -16.3537555892
 C         7.5972158818        6.0518558467      -18.2551309919
 C         6.9528383705        7.3029913846      -16.1394498880
 C         0.7193144454        3.5089260981      -18.5770370993
 C         0.6232643558        5.8893543779      -19.4213489765
 C        -1.8105090861        6.5221566110      -12.7904183806
 C        -0.2868205460        8.5799804771      -12.8090049010
 H         2.3975718057        7.1967636821      -12.4194741279
 H         1.9150002558        7.8112150220      -14.0683998740
 H         2.8407949980        6.2936486423      -13.8601636625
 H        -2.5709348629        7.4480303378      -15.6566942656
 H        -2.2552385394        5.7290881949      -15.1877802304
 H        -1.0735004594        7.1455653951      -17.6320847141
 H        -2.4245815759        6.1921341111      -17.6935610144
 H         2.0602836184        7.5602270666      -17.1680698093
 H         2.9087881980        6.9575505122      -18.5288508026
 H         3.9188759041        6.0258470450      -15.7511782561
 H         4.2225377123        7.6263574162      -16.2334201111
 H         8.1899886222        3.6521217543      -16.7753389766
 H         6.8531711300        3.5232959713      -17.9534670082
 H         5.5972310964        2.0620573747      -16.4240262258
 H         6.6199040057        2.4315419125      -15.0848494444
 H         4.4807359128       -0.7498910863      -14.6602784279
 H         4.6859266982       -2.1748777075      -15.7454449762
 H         2.2518110420       -1.8016218829      -15.6487809628
 H         2.6936839878       -0.5628769602      -16.8258587294
 H        -0.0039042870       -1.0572003719      -12.1690070886
 H        -0.6369547212       -1.5033723404      -13.7767863767
 H        -2.6411222629        0.0182509854      -13.4698895453
 H        -2.0940343330        0.8021102084      -12.0652615558
 H        -6.3835471104       -2.4162826134      -11.8792721623
 H        -5.7012054376       -0.9533392281      -11.3726061840
 H        -7.8096226085       -1.7686714841      -10.2455743692
 H        -6.3457067046       -0.8745442735       -9.3357844401
 H        -2.9859794201       -2.5899592882       -6.7063231070
 H        -2.6120547146       -3.7526260029       -7.9588847020
 H        -1.4589179269       -4.2642327972       -5.7121198192
 H        -2.7803977642       -5.5000978383       -6.1872020752
 H        -5.4263180089       -4.8063525941       -4.0304002403
 H        -5.4953979147       -4.8793026185       -2.1796455000
 H        -7.4399521600       -5.7704682021       -2.7428897033
 H        -6.5281075142       -7.2589164084       -2.4352940296
 H        -9.5274060625       -9.5487617710       -6.4142204036
 H        -8.4727947506      -10.8768945382       -6.2511046437
 H        -9.1884619290      -10.7665256391       -8.4938327218
 H        -7.3450135430      -10.4390761726       -8.2795253675
 H       -11.6047952027       -7.4959076859       -6.7471886931
 H       -12.1146731524       -7.2198885436       -8.3169392503
 H       -13.0214176482       -5.3122796969       -7.2905505190
 H       -11.5325988379       -4.6305713810       -7.9742137345
 H       -12.0214806641       -4.0268946997       -2.9003171388
 H       -11.6524596897       -2.2762970422       -2.4533451173
 H        -9.3019171000       -3.4058644382       -1.5546160011
 H       -10.0376044571       -4.8638571294       -1.9715117545
 H       -12.2678837602       -7.2997035153        1.0693294459
 H       -12.1971647882       -5.9520678528        2.2346645132
 H       -11.0135186209       -7.2361984218        2.1719627971
 H        -8.3113692611       -3.4146223912        0.9676080605
 H        -8.2774734399       -4.7117865151       -0.0866613192
 H        -8.2193540189       -4.9423308320        1.7525616910
 H       -10.3968450607       -3.9187279131        2.9795014611
 H       -11.8659162226       -4.0248730982        2.0533466927
 H       -10.8283345134       -2.6222061416        1.8402747551
 H       -10.1823499779       -1.7419185062       -6.2916230366
 H       -11.0151869646       -2.6265816128       -7.5873286379
 H        -9.6594374202       -3.4154905246       -6.6868907314
 H       -13.4858310278       -3.6091849458       -4.7715567905
 H       -13.2475076061       -2.6833099704       -6.1713868662
 H       -12.8409003803       -2.0282156559       -4.5265714431
 H       -10.3457273873       -6.4288048413      -10.3072630274
 H       -10.1981902284       -8.0045679793      -11.3093886158
 H        -8.8485919432       -7.0320694760      -10.5917516618
 H       -10.7655224090      -10.1901744716       -9.7993295041
 H       -11.9217336291       -8.7654868122       -9.6485897018
 H       -11.1960202859       -9.6721101333       -8.1499078201
 H        -5.9014653889       -9.5312176804       -3.8991964389
 H        -7.4595221358      -10.4982338810       -3.5977201121
 H        -6.9624639848       -9.0560243882       -2.6141519563
 H        -9.4728821221       -8.3324502539       -3.1515050158
 H        -9.5664993507       -9.5379084286       -4.3454243676
 H        -9.7115782477       -7.7282455984       -4.8714554189
 H        -0.6577682940       -5.9376193623       -3.8306075037
 H        -1.5963945722       -6.5139970729       -5.0632449952
 H        -1.6782429773       -7.3156269951       -3.4836621956
 H        -2.7670194674       -5.7674374839       -1.2887161164
 H        -3.2367204194       -4.0695006633       -1.7745077289
 H        -1.5287437449       -4.6783379889       -1.6939504031
 H        -4.6780342356       -1.3449759005       -6.2521432669
 H        -6.0532623725       -0.6088391308       -6.8306072816
 H        -4.7885270395       -0.9097148167       -7.9874024072
 H        -6.4102753255       -2.9939315699       -5.1578069192
 H        -7.2180341496       -4.0850198178       -6.2356194541
 H        -7.6764834910       -2.3814396128       -6.2461662628
 H        -4.2280562182       -3.7406894965      -13.7145433831
 H        -3.1326543935       -2.3301766720      -14.1310047723
 H        -4.8269194421       -2.0979980248      -13.8965104417
 H        -2.6680165523       -4.4125054874      -12.0123853752
 H        -1.9673376472       -3.3512998923      -10.6722922792
 H        -1.4543933843       -3.2837747527      -12.4563938241
 H         1.6517648843       -1.9485833656      -13.4595514471
 H         1.9405078065       -1.1302927463      -11.9933901767
 H         3.2476889342       -1.1671556906      -13.1798632263
 H         3.3426185562        1.1494268913      -12.2713923407
 H         1.6917116597        1.6950474018      -12.0424147128
 H         2.4685279638        2.3010135752      -13.4867604795
 H         6.5003348877        0.6300792580      -19.0102009821
 H         6.6126542118       -1.0433242673      -19.0983422401
 H         8.0911412712       -0.3257151603      -18.5987365253
 H         8.4863798884       -1.3340519706      -16.1456028836
 H         7.3487601297       -2.5297534589      -16.9588290925
 H         6.8809080052       -1.7398819382      -15.4264227857
 H         8.6713983994        5.8929454238      -17.9289635729
 H         7.6538561895        7.0338118546      -18.7464668427
 H         7.2400943512        5.2776478548      -18.9504522840
 H         6.2919047855        7.3427610438      -15.2202542621
 H         7.1437575510        8.1935045979      -16.6308086898
 H         7.9306267090        7.0932889938      -15.7060516127
 H         0.8404204452        2.8295062452      -17.7950035108
 H         1.6597298174        3.3941312764      -19.1266360198
 H        -0.1178225444        3.2094793358      -19.3283874492
 H         0.4836668935        6.9467379816      -19.1401437732
 H        -0.2112945099        5.5489904522      -20.1159771293
 H         1.5720754460        5.8596439026      -19.9150192681
 H        -1.6353870079        6.0921270147      -11.8396370630
 H        -2.1164728817        5.6602025666      -13.4827177808
 H        -2.6073221484        7.2221950317      -12.5725911463
 H         0.1060792490        9.1522836010      -13.5228067778
 H         0.3423637421        8.5430126423      -11.9575551052
 H        -1.2451732043        8.9955201548      -12.5875835857
 Na        0.7795038973        3.2428772975      -14.9555938616
 Na       -6.9029839639       -6.3915498287       -7.7209569439
