232

 C         2.2513251788        6.9604710179      -13.1562705638
 C         0.8841298617        6.3145211901      -13.2887762292
 O         0.8558865155        5.0927072741      -13.3395808090
 C        -0.5132871691        7.0629198027      -13.5052127775
 C        -0.7136593224        7.4162820884      -15.0652445834
 O         0.0612658280        8.0390429809      -15.7535628428
 C        -1.9823457766        6.8685202844      -15.7891345694
 C        -1.6315808736        6.3948340779      -17.2580878687
 C        -0.6902032294        5.1194900681      -17.2300334470
 O        -0.8650964185        4.3563137175      -16.2345737570
 C         0.4577172708        4.8731297839      -18.1980603498
 C         1.7553711012        5.2283485178      -17.3195074906
 O         2.0244753211        4.5687518988      -16.3228450393
 C         2.4456711096        6.6292325581      -17.5035839044
 C         3.8792344203        6.7042557330      -16.8566650575
 C         5.1022923664        6.2594062506      -17.7645139077
 O         4.9648570812        6.0994707974      -18.9281019165
 C         6.4590591817        6.1072642917      -17.0873721335
 C         6.4227395253        4.7185402672      -16.1223833486
 O         6.0929083455        4.8206165547      -14.9835913325
 C         7.1750145370        3.3732212923      -16.5856889494
 C         6.3375015067        2.1749821178      -16.0037748101
 C         7.2570147311        0.8772270670      -16.0795193484
 O         8.4251750152        0.9631156236      -15.8072111897
 C         6.6756820463       -0.4312493181      -16.8844754797
 C         5.1042447744       -0.3982913647      -16.9514933570
 O         4.5041165326        0.0223045173      -17.9303005184
 C         4.3792578759       -0.9523974518      -15.6790570546
 C         2.8287275197       -0.9262501688      -15.9188107529
 C         2.3361454186        0.2671575337      -15.1629627263
 O         2.2982600698        1.3291956520      -15.7724000868
 C         1.7608930122        0.0853896177      -13.7468486936
 C         0.2167185182        0.2943298187      -13.7369377165
 O        -0.2708922958        1.3303770010      -14.0917788077
 C        -0.6676085928       -0.6414604349      -12.7448535863
 C        -2.0133053127       -0.1130494719      -12.5151445470
 C        -2.9314795906       -1.0527920023      -11.6279087723
 O        -3.3661603229       -0.5694227858      -10.5960388653
 C        -3.4278267009       -2.4811249148      -12.1089861895
 C        -4.6195307547       -2.7078823503      -10.9996815584
 O        -4.3462024883       -3.2928336508      -10.0263171154
 C        -6.0882654263       -2.2072815016      -11.1072202166
 C        -6.7541645510       -1.8028114478       -9.6476969475
 C        -6.6745802299       -2.9465295656       -8.6794990049
 O        -7.3559580901       -3.9937157363       -8.7653902425
 C        -5.8895704191       -2.6670916172       -7.3149673303
 C        -4.8935895012       -3.8006448093       -7.0585373468
 O        -5.2702542669       -5.0156841402       -7.0615593707
 C        -3.4294034277       -3.5330351045       -6.8293423084
 C        -2.6036287180       -4.5325892437       -6.0402070505
 C        -2.8669818224       -4.3505861206       -4.4823351549
 O        -3.0754058995       -3.2272588610       -4.0706174686
 C        -2.6691826991       -5.5580327953       -3.4542197180
 C        -4.1226053766       -6.2347046805       -3.3123855239
 O        -4.1460252349       -7.4766549869       -3.2110607857
 C        -5.5178028578       -5.5577558343       -3.1780307647
 C        -6.6797322065       -6.5374368352       -3.0508285940
 C        -6.9886813489       -7.0947969200       -4.4835083898
 O        -6.8325944725       -6.2348175103       -5.3814938619
 C        -7.7251553983       -8.3920934959       -4.6516253954
 C        -7.4772616421       -8.9144184071       -6.1004631859
 O        -6.5471363787       -8.4613249872       -6.7262110020
 C        -8.3525859265      -10.1453121542       -6.7379006190
 C        -8.0897546232      -10.1417868810       -8.3280120927
 C        -8.4140348109       -8.7806664601       -8.9699700253
 O        -7.4687159299       -8.0439738752       -9.2313094546
 C        -9.9342286497       -8.1223220074       -9.1010720511
 C       -10.2230582217       -6.9060558256       -8.1257673080
 O        -9.3897872529       -6.0532623969       -7.7798402614
 C       -11.6112697525       -6.7371667826       -7.4563438959
 C       -11.7759812028       -5.2231695050       -7.2388686803
 C       -11.5468024477       -4.8305598623       -5.7624841135
 O       -11.3836244222       -5.5864651193       -4.8630857731
 C       -11.2270375356       -3.2807674128       -5.5810481359
 C       -10.3716342035       -3.2011010357       -4.2360272938
 O        -9.1562075297       -3.1112811605       -4.3146764529
 C       -11.0588773980       -3.3656353889       -2.9422712118
 C       -10.1465353420       -3.8574577329       -1.7526576584
 C       -10.8821337152       -3.7071800561       -0.3968686539
 O       -11.7995892333       -2.8624146685       -0.3529637772
 C       -10.3899128317       -4.4506664535        0.8959150946
 C       -10.6748365011       -5.9701581647        0.6612120377
 O        -9.8244131332       -6.5450748467       -0.0446526898
 C       -11.8598514201       -6.7516578743        1.2263292819
 C        -8.8001658559       -4.1849117285        0.9680511290
 C       -10.9691690553       -3.9071059870        2.2010963809
 C       -10.4592142344       -2.6045405142       -6.7796972167
 C       -12.6005905810       -2.5547635596       -5.6655099144
 C       -10.0384461058       -7.5481729080      -10.5799355542
 C       -11.0615619057       -9.2024506163       -8.9557972097
 C        -7.0892925167       -9.5151524410       -3.7621105172
 C        -9.2231749215       -8.1125950875       -4.3317571438
 C        -1.6315689446       -6.6820934871       -3.8490295781
 C        -2.4104545472       -4.9779291871       -2.1037420866
 C        -5.2161157943       -1.2954114536       -7.1915304484
 C        -6.8847438301       -2.7061721583       -6.0700008592
 C        -3.9350065324       -2.5802733292      -13.4933055233
 C        -2.3477364393       -3.6148678860      -11.8155803958
 C         2.3148200013       -1.2026457075      -13.0820391606
 C         2.1389158894        1.2986054322      -12.8096622028
 C         7.1919444710       -0.2875566914      -18.3620487168
 C         7.1918703719       -1.7570128478      -16.1759988394
 C         7.6025206902        5.9484117597      -18.1640656362
 C         6.7850048321        7.3512411389      -16.1797968040
 C         0.6256965897        3.3625394127      -18.3829158251
 C         0.2118483356        5.4832130462      -19.5567454761
 C        -1.4850106241        6.1731518247      -12.6600006315
 C        -0.4748397076        8.5150108201      -12.8813058539
 H         2.3489323192        7.5226658601      -12.2374663299
 H         2.4479606089        7.6866740887      -13.9925092857
 H         3.0157574903        6.1606098015      -13.0855118326
 H        -2.7012907097        7.6752205843      -15.8970773675
 H        -2.4224980627        6.0086244581      -15.2985336568
 H        -1.3756037321        7.2261221198      -17.9126556677
 H        -2.6607169441        6.1116757502      -17.6989260794
 H         1.7123328855        7.2737963877      -16.9929118335
 H         2.5667492431        7.0816885716      -18.5090871763
 H         3.8835967143        6.0871815354      -15.9527096118
 H         4.1089548968        7.6607212274      -16.3988502038
 H         8.1817223092        3.4183205117      -16.1676163141
 H         7.3081993528        3.2672900272      -17.6761089749
 H         5.3725286087        2.1579040910      -16.4953180547
 H         6.1205424801        2.2049734108      -14.8931875496
 H         4.7298945432       -0.4599993189      -14.7315803136
 H         4.7494184391       -1.9636069144      -15.5109644842
 H         2.4124547798       -1.8669712607      -15.6361699674
 H         2.7539864766       -0.8071221598      -17.1023395320
 H        -0.1952677214       -0.6496792823      -11.7749249066
 H        -0.6986914927       -1.6636616427      -13.2045812078
 H        -2.4399729121        0.1082236628      -13.5235902794
 H        -1.9895509177        0.8258781570      -12.0153199267
 H        -6.7603487287       -2.8601427607      -11.6595312909
 H        -5.9754168340       -1.2709124327      -11.7275782445
 H        -7.7730266876       -1.5539131026       -9.8494708983
 H        -6.1187995448       -0.9881139733       -9.3237667464
 H        -3.2536605696       -2.5479964448       -6.3031559609
 H        -2.9372673207       -3.4215060831       -7.8088512155
 H        -1.5651621828       -4.3395269250       -6.1505114803
 H        -2.8134301753       -5.5534609911       -6.4386440290
 H        -5.7926132442       -4.8414525443       -4.0106052553
 H        -5.3360896119       -5.0425746037       -2.2546613320
 H        -7.6083237743       -5.9950165287       -2.7651969100
 H        -6.4870624783       -7.3593136836       -2.3615980494
 H        -9.4067998378       -9.9628055999       -6.3653827493
 H        -8.0108484818      -10.9637003186       -6.1633244139
 H        -8.5729008681      -10.9293602473       -8.8894423657
 H        -7.0362798455      -10.1561559125       -8.4870546754
 H       -11.5906795727       -7.1792495243       -6.4328108918
 H       -12.4946742533       -7.1922665528       -7.9786825687
 H       -12.8314401474       -5.0587263724       -7.4401933109
 H       -11.2083929549       -4.6036298490       -7.8915184234
 H       -11.8688249704       -4.0358146326       -3.1704968298
 H       -11.5342037245       -2.3924697033       -2.7321011120
 H        -9.1150421792       -3.4503136793       -1.8313091235
 H        -9.8813681622       -4.9113835701       -1.9391555970
 H       -12.4637892457       -7.2274465477        0.4123399981
 H       -12.4859001738       -6.0466264745        1.8066928908
 H       -11.5521917643       -7.6342917885        1.8764137136
 H        -8.5420462542       -3.0788337608        0.8736662208
 H        -8.2038780888       -4.6221698524        0.1275709500
 H        -8.4289491572       -4.4807197602        1.9431039420
 H       -10.1587124245       -3.7863481091        2.9542372633
 H       -11.7800932782       -4.4788057650        2.6783641462
 H       -11.2940053592       -2.9575138201        1.8450717449
 H       -10.1535366890       -1.6798361793       -6.3379434580
 H       -11.0860565485       -2.4078407002       -7.7111557902
 H        -9.6263626808       -3.2298354814       -7.0994714257
 H       -13.2660234633       -2.9369046301       -4.9393741804
 H       -13.0815485317       -2.6222271257       -6.6874393956
 H       -12.4058052479       -1.5787803842       -5.2466195319
 H        -9.6872552761       -6.4901621985      -10.5447946285
 H       -11.0702010552       -7.7968518046      -10.8773655580
 H        -9.3200903332       -7.9774778316      -11.2795374462
 H       -10.8544279512      -10.0827401880       -9.4800171070
 H       -11.9851887691       -8.7637108188       -9.3307076981
 H       -11.1351460091       -9.5159957814       -7.9023667004
 H        -6.0465506935       -9.5065842257       -3.7649806679
 H        -7.4973813595      -10.4630722213       -4.1388123408
 H        -7.3820009419       -9.4222526778       -2.6999339130
 H        -9.2472448218       -8.2470680048       -3.2481384657
 H        -9.9969353212       -8.6724852350       -4.7740201531
 H        -9.3217020288       -7.0334198995       -4.5706500859
 H        -0.8373263651       -6.8847512966       -3.1299729983
 H        -1.1889708171       -6.4856571751       -4.8154884701
 H        -2.2513659294       -7.5875619085       -3.9028719381
 H        -2.7605003711       -5.7853772453       -1.4309700926
 H        -2.9119419297       -4.0654255598       -2.0069345293
 H        -1.2968729379       -4.8494990222       -1.9845430970
 H        -4.8414689805       -1.0274264441       -6.1993881450
 H        -5.8668198862       -0.5353052819       -7.5476045339
 H        -4.4516380567       -1.2509946058       -7.9402608462
 H        -6.2836330205       -2.4680707796       -5.1695989924
 H        -7.2543926349       -3.7642453562       -5.9731939244
 H        -7.7007115683       -1.9971279432       -6.2462713855
 H        -4.5446556957       -3.4706241540      -13.5259264967
 H        -3.0807381080       -2.6567483153      -14.1255970183
 H        -4.4358207799       -1.7227687869      -13.8165589261
 H        -2.5741449760       -4.5843397464      -12.3269831926
 H        -2.0819368457       -3.7171368099      -10.7906788736
 H        -1.4403762363       -3.2852506878      -12.3182832599
 H         1.7436660897       -2.0328944481      -13.4582394674
 H         1.9797426142       -1.1097170251      -12.0064663372
 H         3.3838984175       -1.2781403076      -13.1731323925
 H         3.1979239569        1.2952994798      -12.7418467703
 H         1.8716695647        1.1329854547      -11.7976291616
 H         1.7785876039        2.2063755879      -13.1779147072
 H         6.8076576784        0.5842797285      -18.8602888676
 H         6.7084125958       -1.1275626090      -19.0065969288
 H         8.2180287486       -0.4563939021      -18.4053087583
 H         8.1755555857       -1.7492879140      -16.4127323956
 H         6.8213225514       -2.5631467705      -16.7980447898
 H         7.0286588346       -2.0133099630      -15.1060953301
 H         8.5422450315        5.8107381059      -17.6979223307
 H         7.8863214469        6.9071936177      -18.6324465922
 H         7.3221108390        5.1605052420      -18.8335850973
 H         6.3007227887        7.1988592198      -15.2353395940
 H         6.4679472868        8.3106995487      -16.7635927889
 H         7.8733158279        7.6304088805      -15.9865791879
 H         0.5138676161        2.8309562693      -17.3567602894
 H         1.5748147568        2.9932866391      -18.7056602686
 H        -0.0611489182        3.0669334997      -19.1028547522
 H        -0.4413869423        6.3228794853      -19.4889218279
 H        -0.0065116768        4.7179609064      -20.2391765193
 H         1.0966695408        6.0699554846      -19.8387863336
 H        -1.3994786828        6.4543101241      -11.5278093953
 H        -1.2854241208        5.1561873255      -12.7970503608
 H        -2.5466627059        6.4364041047      -12.8905547302
 H         0.3265195011        9.1888641745      -13.3550708404
 H        -0.2630397901        8.4438136186      -11.8151826346
 H        -1.4582123765        8.9858818948      -13.1118819629
 Na        0.9535123130        3.1221411144      -15.1252322424
 Na       -7.0038848218       -6.1700930238       -7.8075053715
