232

 C         2.2197690926        7.1006936992      -13.0190527490
 C         1.0281513538        6.2626726517      -13.4137590728
 O         1.0499320150        5.0141168362      -13.3896473119
 C        -0.4043258717        7.0278386645      -13.5407033479
 C        -0.7551938801        7.3196505938      -15.0529802266
 O        -0.0210345714        8.0753554827      -15.6292241814
 C        -2.0788074711        6.9029495906      -15.8230937176
 C        -1.6404391780        6.3801872903      -17.2013182941
 C        -0.7494465953        5.1106687215      -17.0501269202
 O        -0.9999576856        4.3172912035      -16.0867153453
 C         0.4098659982        4.7849936159      -18.1364418670
 C         1.6885955040        5.3166610770      -17.3804440701
 O         2.1665315139        4.5822780011      -16.4934822837
 C         2.4871015614        6.5546072831      -17.6308900473
 C         3.8841846549        6.6927778311      -16.9190451973
 C         5.0350649464        6.1446458098      -17.7700076305
 O         4.9587136155        6.2201503149      -18.9880149782
 C         6.4564710642        5.9497788706      -17.0300743033
 C         6.5043151754        4.7589489389      -16.0850521666
 O         6.0079207746        4.9415925381      -14.9797228729
 C         7.0278407809        3.3959493827      -16.4535789984
 C         6.2840920263        2.1099829921      -16.0532227138
 C         7.2221880049        0.8960823246      -16.2211443839
 O         8.3762659303        0.9327357889      -15.8323188584
 C         6.7027612768       -0.4015229604      -16.9449739422
 C         5.1842418572       -0.4114933773      -16.9735452890
 O         4.5904184990       -0.1703446369      -18.0222019030
 C         4.4209729095       -0.9952040838      -15.8136773069
 C         2.8716267005       -0.9642496536      -15.9617754683
 C         2.2307890486        0.2383174720      -15.1615630758
 O         2.2873916288        1.3243669856      -15.6936168095
 C         1.7765834804        0.0453489354      -13.6356324653
 C         0.1853685933        0.3791176616      -13.5304740080
 O        -0.3349491695        1.2937022535      -14.1423488737
 C        -0.6089562483       -0.6227746003      -12.7797581609
 C        -2.0954427683       -0.2476071361      -12.5792285058
 C        -2.9833128850       -0.9781255200      -11.5556223195
 O        -3.3145392043       -0.4298284836      -10.5178791353
 C        -3.5470002243       -2.4123887322      -12.0090358833
 C        -4.6116056780       -2.7810107987      -10.9042535715
 O        -4.3359385403       -3.2708789837       -9.8267662190
 C        -6.0626453447       -2.3607562807      -11.2345724349
 C        -6.5428109020       -1.8443975394       -9.8043399002
 C        -6.6798327741       -2.8707537560       -8.6400494251
 O        -7.3324582947       -3.9208353307       -8.7780564116
 C        -5.9157382177       -2.5717232532       -7.3125913510
 C        -4.8299247291       -3.7816131487       -6.9867377255
 O        -5.2032285235       -4.9375267727       -7.0106382214
 C        -3.3923714352       -3.5049222786       -6.7212736374
 C        -2.6609743833       -4.6728341890       -5.9978655035
 C        -2.8075192976       -4.5290790305       -4.5402533400
 O        -3.0509379586       -3.3920490039       -4.1332737239
 C        -2.7816739966       -5.6207390513       -3.4538202435
 C        -4.1335610123       -6.3678135857       -3.2270331593
 O        -4.1335328583       -7.5985247016       -3.2496860689
 C        -5.4358922976       -5.5411675847       -3.0799058526
 C        -6.6236466747       -6.4678033051       -2.9801520285
 C        -7.0406590883       -7.0286863411       -4.4019214654
 O        -6.7773467860       -6.3373232105       -5.3243231435
 C        -7.7957471638       -8.3751678234       -4.6074511933
 C        -7.4648929167       -8.8746509255       -6.1883705361
 O        -6.4891410209       -8.4847826738       -6.7538993241
 C        -8.1707455208      -10.1069815799       -6.8389711179
 C        -8.2557706999      -10.0247069912       -8.2967379655
 C        -8.4166816177       -8.6195363321       -8.9067809466
 O        -7.4891372135       -8.0023770488       -9.3971873783
 C        -9.9024455440       -8.1310391329       -9.0680903241
 C       -10.2068288815       -6.9526756983       -8.0690977961
 O        -9.3926691476       -6.1361146549       -7.7433282482
 C       -11.6606334284       -6.7186059340       -7.4344903192
 C       -11.9323992631       -5.2523038308       -7.2367175197
 C       -11.4339029879       -4.7453438189       -5.8490352429
 O       -11.4567950961       -5.5422671609       -4.9400424349
 C       -11.1295481264       -3.1099352549       -5.5902908204
 C       -10.2435509127       -3.2324864141       -4.2532726028
 O        -9.0357455778       -3.2210574071       -4.3309712202
 C       -11.0299640104       -3.4573009129       -2.9289075412
 C       -10.2554226852       -3.9171732834       -1.7115363999
 C       -10.9362975844       -3.5734486834       -0.4138665010
 O       -11.7363872819       -2.6847034759       -0.3097832770
 C       -10.3890261636       -4.3722807970        0.9264567140
 C       -10.5100410160       -6.0074910488        0.6541770816
 O        -9.7051133823       -6.6693207670        0.0747533630
 C       -11.8758346022       -6.7133705798        0.9512262022
 C        -8.9149790828       -4.1280839262        0.9922652218
 C       -11.0521817339       -3.8908590214        2.2186573026
 C       -10.3372293121       -2.5414327110       -6.8299527556
 C       -12.5150653786       -2.4213745686       -5.6102754247
 C       -10.0384894018       -7.6820054448      -10.5792852851
 C       -10.8618124701       -9.3217341189       -8.7997144458
 C        -7.1352789194       -9.5123532596       -3.7966215196
 C        -9.2981803320       -7.9340838422       -4.3448862058
 C        -1.7162978594       -6.6766471064       -3.9373413800
 C        -2.3746740956       -4.8835109453       -2.0696134289
 C        -5.2198973051       -1.2197865132       -7.3635815619
 C        -6.9907059895       -2.5872158879       -6.1052392532
 C        -3.9793984816       -2.3916247023      -13.4888904292
 C        -2.5227347931       -3.6012287861      -11.8028026402
 C         2.2651941068       -1.2541698904      -13.0406697491
 C         2.3748646770        1.2792424544      -12.7868070150
 C         7.3656923857       -0.2547500064      -18.2742466217
 C         7.1130345385       -1.6445868965      -16.0922813600
 C         7.5119492084        5.8687647074      -18.1462234098
 C         6.6168720630        7.1988810135      -16.1716746740
 C         0.6081863197        3.1995121261      -18.3259304311
 C         0.1961959906        5.4391204415      -19.5712032961
 C        -1.4909750348        6.2027848671      -12.8742462507
 C        -0.3810687706        8.4686636003      -12.8985294222
 H         1.9447855046        7.8681307281      -12.3038505925
 H         2.3819177846        7.6641952457      -13.8978009482
 H         3.0991652642        6.6036786553      -12.6734064551
 H        -2.4425784666        7.8956463774      -16.0753173106
 H        -2.8212903476        6.3266324204      -15.3180942852
 H        -0.9949976767        7.2306413953      -17.5845759429
 H        -2.4013339583        6.3375055522      -17.9245139092
 H         1.8019883249        7.3713125721      -17.3687246639
 H         2.6960368853        6.7049082934      -18.7049009217
 H         3.8506133350        6.2276739330      -15.9321475976
 H         4.1501501936        7.6782817579      -16.6685301907
 H         8.0192527164        3.3529517815      -16.0213674327
 H         7.2049862102        3.3969858544      -17.4715557583
 H         5.3166974787        2.0711282079      -16.5535622932
 H         6.0627885025        2.0224725967      -14.9403197353
 H         4.7932070583       -0.3659831186      -14.9422024431
 H         4.8219651186       -1.9951430964      -15.4557060302
 H         2.5519369340       -1.9343140153      -15.6278648371
 H         2.7607240073       -0.9447949649      -17.0614615939
 H        -0.1801058844       -0.6691576874      -11.8312099325
 H        -0.4543835913       -1.5720408156      -13.3775875492
 H        -2.5603395881       -0.4051785597      -13.5596509005
 H        -2.1994200385        0.8071884511      -12.3565557665
 H        -6.7632527490       -3.1476432061      -11.5012481745
 H        -5.9983917368       -1.6299166127      -12.0514221542
 H        -7.4966706842       -1.4213542676       -9.9363852345
 H        -5.8828357115       -1.0913338951       -9.5325441395
 H        -3.3789834261       -2.6980923474       -5.9792897401
 H        -2.7658611648       -3.0908333620       -7.5890358653
 H        -1.6006212612       -4.8554458927       -6.3221084278
 H        -3.2253950444       -5.5756244865       -6.2027664524
 H        -5.5510081712       -5.0792004876       -4.0295441367
 H        -5.2725545766       -4.8148297603       -2.3469514305
 H        -7.6590275922       -6.0006266234       -2.5832966297
 H        -6.3780435695       -7.3033001121       -2.3886104201
 H        -9.2074809517      -10.2549123526       -6.3419201266
 H        -7.5327505307      -10.8988104122       -6.4541579444
 H        -9.0567390453      -10.7289970841       -8.5604522895
 H        -7.3640965445      -10.3747861705       -8.8080186499
 H       -11.9148847576       -7.2890593673       -6.4900614332
 H       -12.3936230627       -7.0259887946       -8.1893474653
 H       -13.0655462261       -5.1881480761       -7.3220232445
 H       -11.5061041569       -4.6388111996       -8.0640804551
 H       -11.8068197801       -4.1199788305       -3.2659606300
 H       -11.5809734286       -2.5664331304       -2.6943537833
 H        -9.2938861676       -3.3321420276       -1.7469593841
 H        -9.8142492734       -4.8427231070       -1.7892724831
 H       -12.3346642116       -7.2444971881        0.1193347924
 H       -12.6040367442       -6.0426915740        1.4935823169
 H       -11.6056718919       -7.4892414436        1.6224005673
 H        -8.6602749723       -3.0774943792        0.8755577982
 H        -8.3646894643       -4.6202960190        0.1420311447
 H        -8.4909873333       -4.4602030847        1.8971575766
 H       -10.3985784331       -3.9633542910        3.0643683259
 H       -11.9212308611       -4.6073219090        2.4166654625
 H       -11.4522273807       -2.8713436783        2.0069660068
 H       -10.0096987036       -1.4594663343       -6.5963723483
 H       -10.8994772066       -2.6197183803       -7.7826412550
 H        -9.5475397186       -3.2485545100       -6.9925174704
 H       -12.8929159600       -2.5382130358       -4.5407206910
 H       -13.2120228521       -2.7785365430       -6.3459205189
 H       -12.3318635555       -1.3641765661       -5.6049589636
 H        -9.1988808922       -7.0096181221      -10.7838839067
 H       -11.1178388445       -7.3712312935      -10.7004434942
 H        -9.8571725100       -8.5132457465      -11.2342089608
 H       -10.6327323855      -10.1177803803       -9.4829552420
 H       -11.8310478711       -9.0319156865       -9.0307479820
 H       -10.8608098362       -9.7258947932       -7.7942454596
 H        -6.0936133645       -9.3987170089       -3.8718395380
 H        -7.4146428418      -10.4636158404       -4.1028478612
 H        -7.3473880780       -9.4118890058       -2.7370418853
 H        -9.2639107000       -7.8104999310       -3.2793792260
 H       -10.0533314840       -8.7539385431       -4.5992273768
 H        -9.5451953121       -7.0305649208       -4.8544406160
 H        -0.9784025826       -6.9541152687       -3.1217209074
 H        -1.1900811817       -6.3139669523       -4.8051066498
 H        -2.2555738729       -7.6200803004       -4.2107317710
 H        -2.3273095687       -5.6906434706       -1.3468331000
 H        -3.0733032826       -4.0875600112       -1.8170473936
 H        -1.3599165304       -4.4572614305       -2.2666652411
 H        -4.6923104791       -0.9608751551       -6.4132155900
 H        -5.8400418514       -0.4217567054       -7.7380224746
 H        -4.4797156510       -1.2878048978       -8.1727390186
 H        -6.3990203906       -2.6643195559       -5.1592661757
 H        -7.5749898987       -3.4701506088       -6.2134903204
 H        -7.6174633740       -1.6672574031       -6.1563247108
 H        -4.5510754234       -3.3282451650      -13.5758535047
 H        -3.0825146352       -2.4157019357      -14.1455440582
 H        -4.5415040160       -1.5134648383      -13.7601211820
 H        -2.8705638586       -4.5636061192      -12.1564292534
 H        -2.1553485425       -3.6171438465      -10.7887158286
 H        -1.6822044163       -3.3215795129      -12.3659473729
 H         1.7814306969       -2.0754772820      -13.4927781191
 H         2.0251274257       -1.2704917102      -11.9158009370
 H         3.3699868363       -1.2254217480      -13.2043551106
 H         3.3971441752        1.4257267935      -12.9244567687
 H         2.3108221028        1.1197804156      -11.7070512324
 H         1.8719474106        2.1998760188      -13.1188157330
 H         6.9723178586        0.6302722594      -18.7773703379
 H         7.1134097095       -1.0246677580      -18.9303885053
 H         8.4492006083       -0.2794051741      -18.1261723476
 H         8.1520988701       -1.8258573605      -16.2817689323
 H         6.5729221288       -2.5499977991      -16.4725490271
 H         6.9677660411       -1.5333499654      -15.0623516332
 H         8.5147287893        5.7320915449      -17.8136293931
 H         7.7059203135        6.8263526646      -18.6061109632
 H         7.1611599176        5.1415859487      -18.7821870379
 H         6.0302816372        6.9756666504      -15.2853109254
 H         6.2465540646        8.0041443633      -16.7097885080
 H         7.5825317793        7.5483708101      -15.8800938947
 H         0.6599606084        2.7693738437      -17.3613823628
 H         1.4502655293        2.8566548436      -18.8168036878
 H        -0.2250010172        2.8281355349      -18.9622494123
 H        -0.3831558335        6.3576763780      -19.4966232182
 H        -0.0143412849        4.6452059953      -20.2861909394
 H         1.1132097903        5.9607593971      -19.8507596324
 H        -1.7198449491        6.3889586319      -11.8426808172
 H        -1.2380814683        5.1521141411      -13.0184821469
 H        -2.3756781920        6.4189909501      -13.4296586126
 H         0.4351578446        9.1393252545      -13.1355349823
 H        -0.4435434860        8.3513892967      -11.7437818720
 H        -1.3798672458        8.9077814717      -13.3363097126
 Na        0.8864567742        3.1140052112      -15.0996506610
 Na       -7.1384230810       -6.0341057852       -7.9007880750
