232

 C         2.2538760224        7.3243496970      -12.8041321601
 C         1.1431955639        6.3766670150      -13.4189996081
 O         1.4509986365        5.3681980561      -13.9864753326
 C        -0.3347123306        6.8245647990      -13.4486935440
 C        -0.5337733403        7.2323575282      -14.9465769886
 O         0.3824488813        7.7078857315      -15.5728161816
 C        -1.8629624504        7.0575457448      -15.8345063961
 C        -1.4260542243        6.3753846538      -17.2130907624
 C        -0.8027052082        5.0182324462      -17.0422298023
 O        -1.0378287265        4.3777956651      -16.0851647688
 C         0.2199980688        4.4958586563      -18.1672381257
 C         1.6598682751        4.8884824977      -17.5195983119
 O         2.0851203137        4.2436202240      -16.5842517622
 C         2.3854211927        6.2408133905      -18.0286781942
 C         3.6904385791        6.4760396806      -17.2136391712
 C         5.0054412093        6.1246214375      -17.9724303832
 O         4.9809432259        5.6216303044      -19.0720085761
 C         6.2805031123        6.1134480109      -17.0801456423
 C         5.9244597548        4.7796975599      -16.2660352927
 O         4.9913310920        4.7932340273      -15.5116567085
 C         6.7029171327        3.4617176953      -16.5545893698
 C         6.0208561757        2.0689437364      -16.3734406724
 C         7.0027571794        0.9773679732      -16.0968675802
 O         8.0742201773        1.1909354427      -15.5959393247
 C         6.7734424911       -0.5000211379      -16.7687434305
 C         5.2171432833       -0.7119829525      -16.9263633028
 O         4.6588185146       -0.7258751563      -17.9987992226
 C         4.4476110101       -0.9107478745      -15.6394686623
 C         2.9663083298       -0.8251438897      -15.8517746018
 C         2.1997507112        0.3062157384      -15.1591024919
 O         1.9335843793        1.3553071543      -15.7391017544
 C         1.8652408359        0.0683302291      -13.6346624529
 C         0.4102278555        0.3790036367      -13.2163676440
 O        -0.0405424338        1.4856061160      -13.5094477392
 C        -0.4839836325       -0.5739726457      -12.3852114468
 C        -2.0306429703       -0.1684796031      -12.7877878054
 C        -2.8720366040       -0.9997933405      -11.7765559329
 O        -2.9160003754       -0.5764688461      -10.6554984096
 C        -3.4268112311       -2.3810820164      -12.1828711712
 C        -4.5064794090       -2.6532076084      -11.0194886364
 O        -4.0133612351       -3.0799398134       -9.9814557203
 C        -6.0493682580       -2.3196580328      -11.0877749044
 C        -6.7553698417       -1.8755804211       -9.7767282397
 C        -6.7437608846       -2.7704052931       -8.5188498233
 O        -7.5111150421       -3.7142364338       -8.3135346637
 C        -5.6364245352       -2.4463662190       -7.4025923251
 C        -4.6461929254       -3.7427475684       -7.3008066542
 O        -4.9345707053       -4.8847596094       -7.6787191440
 C        -3.3308763899       -3.4466097429       -6.4739188603
 C        -2.7851864829       -4.7344172896       -5.8789009504
 C        -2.9627184731       -4.6264861619       -4.3029144662
 O        -3.4273468715       -3.5952105070       -3.8299585692
 C        -2.6473079926       -5.8639163194       -3.5072329086
 C        -4.1228887907       -6.6326184879       -3.3432401990
 O        -4.2225131573       -7.8088137930       -3.6132805338
 C        -5.2190789011       -5.8073345463       -2.7667345008
 C        -6.5828327528       -6.4857262787       -2.8124102342
 C        -7.0587730049       -6.6255542031       -4.2801044158
 O        -7.1087526764       -5.6610782409       -5.0481352310
 C        -7.6567173988       -8.0759772023       -4.7446680686
 C        -7.1444686362       -8.5970575763       -6.0559022032
 O        -6.1978357683       -8.0494969164       -6.6465523829
 C        -7.7649905885       -9.8278319899       -6.8041054806
 C        -8.1080881636       -9.6491388917       -8.3029072653
 C        -8.8067101550       -8.3274210686       -8.8193737493
 O        -8.0560853888       -7.4354276454       -9.2033150441
 C       -10.2858878703       -8.1276642791       -8.9472943365
 C       -10.6026098193       -6.8740145770       -8.0066223503
 O        -9.6950423287       -6.2491195189       -7.4134976110
 C       -12.1072988554       -6.4797877904       -7.9393376509
 C       -12.0973413460       -5.0121627072       -7.4989700688
 C       -11.4726707382       -4.7600550522       -6.0371878337
 O       -11.6551606701       -5.6562220036       -5.2145547215
 C       -10.9784607722       -3.4145141955       -5.7002171270
 C       -10.2432104997       -3.4565108738       -4.3178211941
 O        -9.0395053705       -3.4711475170       -4.2733616574
 C       -11.0412867026       -3.3677359245       -2.9857389986
 C       -10.1272532457       -3.8487420016       -1.8065676397
 C       -10.7133893973       -3.4557626571       -0.3415201208
 O       -11.5573520528       -2.5558224098       -0.2180369326
 C       -10.3436384978       -4.2716404842        0.8641706449
 C       -10.3857432503       -5.7523347106        0.4251953039
 O        -9.3711628263       -6.4740596481        0.5010496229
 C       -11.6511193072       -6.3083865331       -0.2579904931
 C        -8.9782238643       -3.9114304905        1.3577620179
 C       -11.4943061436       -4.0861113383        1.9800472264
 C        -9.8845380836       -2.9240411987       -6.6551340234
 C       -12.3610527950       -2.5699023195       -5.6332860019
 C       -10.6085994781       -7.9416838801      -10.4983636013
 C       -10.9723167263       -9.3276879915       -8.3016157112
 C        -7.3050169794       -9.2844207659       -3.8188478150
 C        -9.1668168396       -7.8425644646       -4.5388181378
 C        -1.6058675436       -6.8248871605       -4.0613199308
 C        -2.1882901362       -5.4289971603       -2.0908800447
 C        -4.7760799000       -1.2111189262       -7.7021725905
 C        -6.2948804181       -2.1805868577       -5.9988632814
 C        -4.0747436838       -2.2237524201      -13.6657825406
 C        -2.2762616723       -3.4783902131      -12.1102531216
 C         2.2980703682       -1.4576750689      -13.2424148499
 C         2.5959473575        1.0783685086      -12.7477651942
 C         7.4466137499       -0.3228743379      -18.2114551202
 C         7.5417306549       -1.5740563238      -15.9718817159
 C         7.5241482614        5.9791336669      -17.8716410004
 C         6.4905797344        7.1974102117      -15.9855575670
 C         0.1634087374        2.9845619593      -18.1420397236
 C         0.0281292893        5.0634500860      -19.5957598046
 C        -1.2880007322        5.7019422622      -13.0355141850
 C        -0.6833329166        8.0515832959      -12.5779252949
 H         2.6247130866        6.9759810017      -11.8388874588
 H         1.8934048278        8.3244953849      -12.5907962186
 H         3.0667547299        7.4226149185      -13.5057440349
 H        -2.2996313537        8.0404625811      -15.9374895017
 H        -2.6154578793        6.4021983305      -15.3763290234
 H        -0.7249253684        6.9735759411      -17.7620535256
 H        -2.2917517467        6.2307827601      -17.8187677819
 H         1.7271751246        7.1299177841      -17.9053118795
 H         2.7428631741        6.1869302552      -19.0570762219
 H         3.6941995052        5.9703480864      -16.2676188767
 H         3.6523060596        7.5199255838      -16.9223068215
 H         7.4980447129        3.5093441670      -15.8629809801
 H         7.2025096782        3.5562396246      -17.5015691339
 H         5.4019603013        1.9237330448      -17.3258137379
 H         5.2641779802        2.1058285857      -15.5999013406
 H         4.6911401921       -0.2584333410      -14.7585555002
 H         4.8109071346       -1.8994132908      -15.1869174330
 H         2.4881933147       -1.8043405433      -15.5777817001
 H         2.7662929214       -0.6387658601      -16.8588628073
 H        -0.3980166246       -0.4289164127      -11.2872162838
 H        -0.4086522214       -1.5557882822      -12.7216502718
 H        -2.1690055888       -0.4906399645      -13.7715407994
 H        -2.1820564341        0.9113127650      -12.5776449167
 H        -6.4857548782       -3.2711975829      -11.4516519077
 H        -6.2225221959       -1.5738110299      -11.8323161079
 H        -7.6543415844       -1.4123628363      -10.0262070470
 H        -6.3208057678       -0.9022087160       -9.5003656346
 H        -3.3723550675       -2.6799736198       -5.6895331390
 H        -2.6262942180       -2.9029589163       -7.1396920113
 H        -1.7309610946       -5.0091130318       -6.1108514528
 H        -3.2955740515       -5.5683496942       -6.3412990398
 H        -5.2043719259       -4.8625005546       -3.1835218364
 H        -5.0505767409       -5.6063462791       -1.7361845210
 H        -7.1747451683       -5.8370877181       -2.2107052395
 H        -6.5406050685       -7.5230632686       -2.2511230154
 H        -8.6492548102      -10.0341027713       -6.2499353395
 H        -6.9553438877      -10.6704919541       -6.7349440341
 H        -8.6925456595      -10.5537207218       -8.5437430588
 H        -7.1858025076       -9.8514593780       -8.8790779000
 H       -12.5440407882       -7.0427940090       -7.0735735772
 H       -12.6962233779       -6.7545514145       -8.8317513741
 H       -13.1409199960       -4.6688502036       -7.3499128071
 H       -11.5648891717       -4.4097374237       -8.3060256231
 H       -12.0355315904       -3.7911147567       -3.0361004155
 H       -11.3827546978       -2.4055535300       -2.7799454689
 H        -9.1772527878       -3.3443485972       -1.8319377848
 H        -9.8007103234       -4.9045748560       -1.8818310094
 H       -11.7407708646       -7.4296774409       -0.1785757094
 H       -11.6542939092       -6.0143676645       -1.2899692800
 H       -12.5605404043       -5.8328888538        0.2159424501
 H        -8.9412125496       -2.8944596359        1.6838583924
 H        -8.2193457075       -4.0870208558        0.6528000945
 H        -8.5784158858       -4.6238693410        2.1391075256
 H       -11.6826566613       -5.1037739029        2.4094044541
 H       -12.3793087890       -3.6248203082        1.6005705226
 H       -11.0576035177       -3.4136117406        2.7671761055
 H        -9.5016567008       -1.9379241350       -6.3127321196
 H       -10.2624270390       -2.8101961919       -7.6884110899
 H        -9.0322276603       -3.7137278950       -6.7050160792
 H       -13.1573852458       -3.2187087245       -5.3604640580
 H       -12.4587936928       -2.1005235740       -6.6046551181
 H       -12.2847827872       -1.6751497201       -4.9910198798
 H        -9.7685446829       -7.5113502013      -11.0483733538
 H       -11.2687056425       -7.1089758100      -10.6136775650
 H       -10.9818784636       -8.9127485759      -10.9381921403
 H       -10.8633433836      -10.2551196247       -8.7505981541
 H       -12.0308109462       -9.2170564125       -8.1270543896
 H       -10.6416594910       -9.3588208008       -7.3271757756
 H        -6.2670144963       -9.2705873930       -3.4739555597
 H        -7.4252450118      -10.2419162368       -4.2913065724
 H        -7.9250780873       -9.3015640201       -2.9968389681
 H        -9.3800168150       -7.6589549747       -3.4896160356
 H        -9.6295618931       -8.6366771997       -5.0381110204
 H        -9.4916220674       -6.9840658206       -5.1216995343
 H        -2.0391711952       -7.7963993940       -3.9763298036
 H        -0.7229518282       -6.7477125273       -3.3596060717
 H        -1.1335786358       -6.5927099270       -5.0113487683
 H        -2.5323026080       -6.1384163709       -1.3212650644
 H        -2.6749357277       -4.4170688976       -1.9153648232
 H        -1.1473268677       -5.2498464370       -2.1317745500
 H        -4.0028337394       -1.0942872002       -6.9734905719
 H        -5.4157110202       -0.2931803430       -7.5529790443
 H        -4.2325733182       -1.2723568370       -8.6469158210
 H        -5.4649606419       -2.0999073237       -5.3100585349
 H        -7.1345830257       -2.8928455724       -5.7302472997
 H        -6.7352131281       -1.1628247830       -6.0579403468
 H        -4.5353896398       -3.1336062484      -13.9480358746
 H        -3.3725776542       -2.0708050223      -14.4518596703
 H        -4.8738269410       -1.4809070925      -13.5473770022
 H        -2.6825345886       -4.4274906888      -12.2101818000
 H        -1.7690931415       -3.4442424473      -11.1786108533
 H        -1.5383434590       -3.2131406042      -12.8637544937
 H         1.7514765198       -2.1875649820      -13.9552167494
 H         2.0538109160       -1.7056622517      -12.2531255549
 H         3.3847168693       -1.6203023123      -13.3787586984
 H         3.6921856787        0.9826939750      -12.6186548065
 H         2.0958232623        0.9273105013      -11.8508243261
 H         2.4536198129        2.0839363623      -13.0138671131
 H         7.0868167832        0.5622669708      -18.6723025928
 H         7.2349946513       -1.2161165577      -18.8229923725
 H         8.4979587615       -0.1573264774      -18.1658764578
 H         8.5680509295       -1.2330445459      -15.7277905510
 H         7.5287072294       -2.4839330699      -16.4807389684
 H         7.0815715791       -1.7070372824      -14.9686170931
 H         8.3482394429        5.6119136064      -17.2315742156
 H         7.7572053834        6.9292470423      -18.2783998589
 H         7.3908093307        5.3951003231      -18.8150794545
 H         5.7739615932        7.3212193342      -15.2476570964
 H         6.5722087409        8.1743163352      -16.4900158052
 H         7.4282306945        6.9484016560      -15.5492342847
 H         0.2758552297        2.4818022529      -17.1255755993
 H         0.8998363064        2.6626672024      -18.8699134697
 H        -0.7399016444        2.6904997535      -18.5137324276
 H         0.8829725001        5.6904452417      -19.8672691722
 H        -0.8698135916        5.7572022353      -19.6441071178
 H        -0.1733513099        4.2698636345      -20.3249218726
 H        -1.2398303402        5.6751686883      -11.9827263686
 H        -0.9471601341        4.7611965642      -13.4202643769
 H        -2.2487328828        5.9216342724      -13.4503048206
 H         0.0956688080        8.9332802908      -12.7599696402
 H        -0.6963836680        7.8545089993      -11.4703573937
 H        -1.7128653476        8.4069128645      -12.7768162826
 Na        0.8318568535        3.1952809568      -14.8831627395
 Na       -7.2182745120       -5.9326541312       -7.4263620615
