232

 C         2.1579575333        7.3695994794      -12.8103416989
 C         1.2313670623        6.3220414246      -13.3879662794
 O         1.7200203614        5.2752358167      -13.8413101348
 C        -0.3395916327        6.7549398155      -13.5130248791
 C        -0.3862092648        7.1716042149      -14.9509004606
 O         0.5219393372        7.7217126627      -15.5398577232
 C        -1.7842247212        6.8818100363      -15.8200491827
 C        -1.4595256317        6.5228309981      -17.2563569066
 C        -0.8214049381        5.1069432791      -17.0878817771
 O        -1.0298888737        4.3858205787      -16.1177044772
 C         0.2391185200        4.5249614921      -18.1462571215
 C         1.6206812025        4.9386904121      -17.6270729482
 O         2.1402197209        4.2855202954      -16.6703081456
 C         2.2928951158        6.1536256994      -18.1605238847
 C         3.5795868885        6.4334064376      -17.3656434379
 C         4.8971150518        6.0279456478      -18.0309547671
 O         4.9574375953        5.5714298262      -19.1213057233
 C         6.2032081333        6.0269178051      -17.0612630199
 C         5.8819604055        4.6312009155      -16.3070382140
 O         4.9608670843        4.4932886178      -15.5235391669
 C         6.7955187199        3.4156473866      -16.6409932318
 C         5.9594518994        2.1750098352      -16.4804703275
 C         6.9722820232        0.9856150746      -16.1116885968
 O         7.9970042779        1.2127595528      -15.4688493717
 C         6.8040511500       -0.3789190600      -16.7927693050
 C         5.2820822689       -0.7458974788      -16.8698453736
 O         4.7110653538       -0.7985377627      -17.9661518801
 C         4.4386119640       -0.8894553200      -15.5189668367
 C         2.8585341842       -0.9067486138      -15.8501676675
 C         2.1726359715        0.2513528681      -15.1029098353
 O         1.9379327349        1.3108421173      -15.6777954080
 C         1.8027442296        0.0856212474      -13.5556143230
 C         0.3749445211        0.4728838467      -13.2349816483
 O        -0.0311029133        1.6142930835      -13.3707605740
 C        -0.3860131510       -0.5581317100      -12.4830616223
 C        -1.8648776991       -0.2493051242      -12.8249242859
 C        -2.7596430238       -1.0688531450      -11.8285232987
 O        -2.9449541288       -0.5947734697      -10.7291495043
 C        -3.4858109333       -2.3480935614      -12.2583953990
 C        -4.4879714254       -2.7023311940      -11.0002668889
 O        -4.0431587922       -3.1128595239       -9.9956112262
 C        -5.9930114092       -2.3034548451      -11.0938777361
 C        -6.8444632717       -2.0046548703       -9.8486604744
 C        -6.5560498180       -2.8160971605       -8.4357859698
 O        -7.4921989744       -3.5688856659       -8.2451021035
 C        -5.4833730059       -2.4534589989       -7.3968066771
 C        -4.6692473450       -3.7145746249       -7.2584566600
 O        -4.9332631425       -4.8893376830       -7.6449409260
 C        -3.4376735899       -3.4415464572       -6.4631417776
 C        -2.6278167684       -4.5925896756       -5.8911657867
 C        -2.8928036853       -4.7172539227       -4.3662755520
 O        -3.4192010743       -3.7906171101       -3.7563798042
 C        -2.6915171660       -5.9987855618       -3.4488735589
 C        -4.1094370468       -6.6202170074       -3.3176210470
 O        -4.3178150496       -7.7815402491       -3.7809112007
 C        -5.2406265619       -5.7588277473       -2.7175880763
 C        -6.5915474821       -6.5483455915       -2.8026793216
 C        -7.0668410579       -6.6907185471       -4.2725912100
 O        -7.0793023260       -5.6777221270       -5.0273038994
 C        -7.6328450255       -8.0197852248       -4.6802938535
 C        -7.0974702788       -8.3126123282       -6.1987948045
 O        -6.1028055261       -7.8579586594       -6.6654785115
 C        -7.8156853851       -9.6600729866       -6.7739611720
 C        -7.9120442079       -9.5778779506       -8.3241510477
 C        -8.6493711773       -8.3270047201       -8.8472281078
 O        -8.0068298348       -7.3524022953       -9.0501865191
 C       -10.2912487202       -8.1455973835       -8.8994202599
 C       -10.7027873273       -6.8200287920       -8.1146264420
 O        -9.8623534828       -6.3020394051       -7.4240115653
 C       -12.1488622775       -6.4227847575       -7.9486409008
 C       -12.2875261690       -5.0236251287       -7.4542573032
 C       -11.5966690766       -4.8582761192       -6.1102580452
 O       -11.7191957323       -5.6789752591       -5.2806328493
 C       -10.9038381963       -3.3653611211       -5.6831530810
 C       -10.1713259271       -3.4349093634       -4.2625165936
 O        -8.9525274930       -3.5663562124       -4.2295329059
 C       -10.9899628985       -3.4361200789       -2.9731475976
 C       -10.1205202504       -3.5792673966       -1.7996932952
 C       -10.8344330679       -3.3629085854       -0.3576780381
 O       -11.5706869142       -2.4258282404       -0.3037195210
 C       -10.4053014655       -4.3210834446        0.8974207148
 C       -10.3319060939       -5.8087963703        0.3866286004
 O        -9.3172178390       -6.5067737928        0.5142947065
 C       -11.6106631609       -6.2825686680       -0.3523811823
 C        -8.9879713899       -3.9453998299        1.4014931802
 C       -11.5088733555       -4.1593117363        1.9390486043
 C        -9.9336564825       -2.7897019007       -6.7425837911
 C       -12.1986283144       -2.6133037401       -5.6363351657
 C       -10.7709079825       -8.0571077214      -10.3974952608
 C       -11.1871654702       -9.2405496366       -8.2256193335
 C        -7.2670058240       -9.2939128890       -3.8295501480
 C        -9.1695504594       -7.8622248830       -4.5051535679
 C        -1.6610450687       -6.9823544937       -4.1194488814
 C        -2.2284762149       -5.3319882852       -1.9979347728
 C        -4.6084738240       -1.2621635849       -7.7118225268
 C        -6.1491823354       -2.3468269857       -6.0235100039
 C        -4.0363404541       -2.2080000985      -13.6658590586
 C        -2.4171519554       -3.4559654539      -12.1998483382
 C         2.1568853124       -1.3539919660      -13.1122975722
 C         2.8324162358        1.0048976795      -12.8066063025
 C         7.5106685550       -0.2788211208      -18.1451609850
 C         7.4902305348       -1.4560060150      -15.9908585862
 C         7.5502285047        6.0227819732      -17.8265027025
 C         6.2346785239        7.1402431343      -15.9374342217
 C         0.1340642258        2.8841790171      -18.0523932535
 C        -0.1054647340        5.0870628424      -19.5271547068
 C        -1.3684634387        5.6322441670      -13.0763461225
 C        -0.7224583241        8.0112226616      -12.6316387435
 H         2.6006183968        6.9560730716      -11.9793208163
 H         1.6281475915        8.2058839924      -12.3944655070
 H         2.8869488554        7.7779159858      -13.4815510806
 H        -2.2777961592        7.8700789680      -15.7718065508
 H        -2.5157714985        6.1592893425      -15.4229228745
 H        -0.7412011591        7.1579345899      -17.6224596389
 H        -2.3712293770        6.5168592463      -17.8641730942
 H         1.5733570978        6.9721007752      -18.0326465815
 H         2.6031996933        6.0506664857      -19.2005738152
 H         3.5995634231        5.8210088190      -16.4725686348
 H         3.5049525814        7.4695210625      -16.9601715732
 H         7.6003883506        3.3907640074      -15.9440081273
 H         7.2806179067        3.5149038150      -17.6272077535
 H         5.4367779491        2.0917311663      -17.4276564883
 H         5.1659151195        2.2666213433      -15.7334988652
 H         4.6307716803       -0.0698173508      -14.7528700657
 H         4.7869777884       -1.7647009604      -14.9325623777
 H         2.4389852017       -1.8297251785      -15.6684786580
 H         2.6852517310       -0.5916888922      -16.8667486343
 H        -0.2532193989       -0.2793920224      -11.4036879508
 H        -0.1727868596       -1.5747043305      -12.7557870243
 H        -2.0295757046       -0.4875149768      -13.9002660946
 H        -1.9519292278        0.7807942298      -12.5398997425
 H        -6.3798046462       -3.1688593224      -11.6108307600
 H        -6.0641522317       -1.4971085083      -11.8118926446
 H        -7.9217182058       -1.9388143679      -10.1111542040
 H        -6.8770518574       -0.8590838035       -9.6966622059
 H        -3.4854615811       -2.6728237434       -5.6625390446
 H        -2.8548941209       -2.8825069452       -7.1250788354
 H        -1.5638211656       -4.5209585746       -6.0266758986
 H        -2.8027620484       -5.5629867313       -6.4342078023
 H        -5.2520011434       -4.6563047531       -3.0658286181
 H        -5.0171032478       -5.6262069480       -1.6790181398
 H        -7.2980728921       -6.0119408324       -2.2259294345
 H        -6.4466030343       -7.4872615939       -2.3240165112
 H        -8.7930406572       -9.6722910954       -6.2741592125
 H        -7.1072104121      -10.3969764166       -6.3734637326
 H        -8.3325724459      -10.5025749899       -8.8158068521
 H        -6.8523260046       -9.5890468517       -8.6794082717
 H       -12.5426058287       -6.9841775683       -7.1133555909
 H       -12.8070272558       -6.6488976610       -8.8089434665
 H       -13.3969110805       -4.9441121529       -7.2427668402
 H       -11.9254795097       -4.2607368378       -8.1892933490
 H       -11.7307507291       -4.2246207467       -3.0521106807
 H       -11.7683778115       -2.6553166680       -2.8389276093
 H        -9.2106749956       -3.0357307470       -1.9082907688
 H        -9.7792430384       -4.6515080982       -1.7640777103
 H       -11.8347802434       -7.2462581684        0.0160981188
 H       -11.3715364616       -6.4136942121       -1.3850361837
 H       -12.4707177347       -5.6214490946       -0.2568278709
 H        -8.9958207820       -2.8791620240        1.6029051053
 H        -8.2650935435       -4.1350244368        0.6643150864
 H        -8.5682559812       -4.4685634390        2.2131082447
 H       -11.7119371784       -5.1348882869        2.4962626358
 H       -12.4052106827       -3.7346610302        1.4621513363
 H       -11.1447631760       -3.4034709361        2.6248437610
 H        -9.7431783580       -1.7507729655       -6.4407239876
 H       -10.2787085292       -2.7533785147       -7.8468203352
 H        -8.9907221402       -3.3233001601       -6.6613133250
 H       -12.9735098015       -3.2680175490       -5.3190293052
 H       -12.3630844109       -2.2655237188       -6.6918418686
 H       -12.1316196880       -1.6524507088       -5.1281044097
 H       -10.2838832610       -7.2596131321      -10.9487497599
 H       -11.7259111808       -7.6213291770      -10.4169208320
 H       -10.7187231200       -9.0090012443      -10.8565152507
 H       -11.4488034449      -10.0959146177       -8.7887366022
 H       -12.1416537865       -8.8511159003       -7.8986030764
 H       -10.8234246187       -9.6392423413       -7.2487465086
 H        -6.2734610879       -9.4802844345       -3.8195105850
 H        -7.8312387613      -10.1617153127       -4.1209607954
 H        -7.5350620386       -9.1281206294       -2.7832916258
 H        -9.5479748459       -7.8760053537       -3.4517846466
 H        -9.5303530320       -8.6028937928       -5.1549169977
 H        -9.5207411677       -6.9094507600       -5.0151743877
 H        -2.1174122242       -7.9834889657       -4.1211428556
 H        -0.7019531035       -6.9792458566       -3.5604520554
 H        -1.2892792790       -6.6507762390       -5.1176787121
 H        -2.4920140598       -6.0537453732       -1.1887387974
 H        -2.6586056524       -4.3899731403       -1.7988137982
 H        -1.1361988742       -5.1872074408       -2.1173953663
 H        -3.7480642052       -1.0851027825       -7.0316663693
 H        -5.1956113372       -0.3301965583       -7.5887553789
 H        -4.1604133686       -1.4500485248       -8.7017338549
 H        -5.3854879797       -2.4494222915       -5.2627857542
 H        -6.9906642219       -3.0729774204       -5.9856062583
 H        -6.5593108168       -1.3534852029       -5.9264918473
 H        -4.4413617431       -3.1070266581      -14.1983072412
 H        -3.0682826710       -2.1061446351      -14.1639042808
 H        -4.7279434694       -1.3696648483      -13.7506932629
 H        -2.9975980274       -4.3433046289      -12.4023184231
 H        -2.0518526711       -3.5641879441      -11.2096787511
 H        -1.6144959851       -3.2962367248      -12.9028500469
 H         1.5719295558       -2.0751729003      -13.6868215352
 H         2.0368716327       -1.5278432132      -12.0074256391
 H         3.1880687849       -1.5255432315      -13.3694535115
 H         3.8746314359        0.8805331170      -13.1205468741
 H         2.6861252138        0.8181064041      -11.7326427610
 H         2.6236899719        2.0672272001      -12.9513819589
 H         7.3066438944        0.6377909994      -18.6190471294
 H         7.1768334522       -1.1758729545      -18.7341276595
 H         8.5398222369       -0.2414131310      -18.0806426821
 H         8.5021250144       -1.3052029958      -16.0331351540
 H         7.2403986390       -2.4068729664      -16.5164884417
 H         7.2918791548       -1.5548048010      -14.8600638945
 H         8.3655925055        5.6957862683      -17.2122795353
 H         7.5550454084        7.0734034683      -18.2029415560
 H         7.5734101171        5.5452135010      -18.7713029239
 H         5.6209332070        7.0180414512      -15.1320523567
 H         5.9573947624        8.0573957639      -16.3472206522
 H         7.2057599959        7.1668098740      -15.5835258381
 H        -0.1676587664        2.4031426495      -17.0555663482
 H         1.1155473224        2.5929878961      -18.4124976888
 H        -0.6042141378        2.4881602635      -18.7578440358
 H         0.6779705269        5.7345770945      -19.9770793679
 H        -0.9070882765        5.8202602762      -19.4067018077
 H        -0.5138865076        4.2970701728      -20.2155693918
 H        -1.3437262823        5.7100790268      -11.9611485348
 H        -1.0210832540        4.7284931496      -13.3807305351
 H        -2.3290000157        5.8151722368      -13.4975453604
 H        -0.2365616911        8.9425761903      -12.8695667434
 H        -0.6682108926        7.8437543339      -11.5618910576
 H        -1.8215915444        8.1513032982      -12.8036483282
 Na        0.8996162493        3.2982598295      -14.9504621200
 Na       -7.2305895579       -5.7718334750       -7.2723623736
