232

 C         2.1722783656        7.3787123806      -12.7745574118
 C         1.2016421459        6.3256175934      -13.2322279894
 O         1.7098767120        5.2464692091      -13.5948120780
 C        -0.3125857000        6.6276662693      -13.5239365844
 C        -0.3958580221        7.1545855371      -15.0940048650
 O         0.5868147781        7.6822475144      -15.5288183925
 C        -1.6777060611        6.9582098652      -15.7975574276
 C        -1.3507529980        6.4416760183      -17.1759498786
 C        -0.7897976656        5.0324799061      -17.0956886767
 O        -1.0362821613        4.4407925768      -16.0039611739
 C         0.1302211437        4.5145071419      -18.2298772290
 C         1.6076214262        4.9831686931      -17.6458554581
 O         2.1009555867        4.3054123600      -16.7907623172
 C         2.3346471027        6.0919143573      -18.2788800833
 C         3.5557720626        6.5530038709      -17.4524438926
 C         4.8222348742        5.9172151856      -17.9627164612
 O         4.9753620999        5.5914118128      -19.1593187476
 C         6.0832183792        5.9479201221      -17.0166270450
 C         5.9309585862        4.5453196851      -16.3429454090
 O         5.0152847075        4.3269067747      -15.5556367889
 C         6.8493965381        3.4205734117      -16.7585575267
 C         6.0972114222        2.1271645032      -16.5707958237
 C         7.0766593249        0.9919547624      -16.1340153127
 O         7.8404709226        1.2957335435      -15.2444530810
 C         6.7930543288       -0.4096194268      -16.8193963836
 C         5.2521842092       -0.7068180763      -16.8866441265
 O         4.7306279219       -0.8965076945      -17.9497449865
 C         4.4532742389       -0.7944979187      -15.5763699042
 C         2.9026538800       -0.8795299576      -15.9138103550
 C         2.2171286071        0.1971269521      -15.1030894251
 O         1.8961383469        1.2377453464      -15.6045264735
 C         2.0399186613        0.0218249832      -13.5052127959
 C         0.4900581235        0.6569611559      -13.1121266189
 O         0.0777658339        1.7515624733      -13.3969825853
 C        -0.4348813647       -0.4362886020      -12.5587661937
 C        -1.9508066828       -0.3315291055      -12.8257771921
 C        -2.8204584345       -1.0164430584      -11.7802756664
 O        -2.9653246140       -0.5334530478      -10.6412647734
 C        -3.5052422842       -2.3621067934      -12.2832028487
 C        -4.4957234483       -2.6328605560      -10.9992846047
 O        -4.0602418014       -3.2268654639      -10.0183012623
 C        -6.0069660225       -2.3143401913      -11.2033404727
 C        -6.7522469684       -2.0226627397       -9.9113841018
 C        -6.5367001194       -2.7638458648       -8.4566649872
 O        -7.3896326845       -3.5587278989       -8.2152487890
 C        -5.4585989284       -2.4534985153       -7.5082682254
 C        -4.5227469254       -3.8231986145       -7.2184368777
 O        -4.9817052287       -4.8623363541       -7.5084254970
 C        -3.1215898980       -3.5368934809       -6.5495074143
 C        -2.4498278958       -4.6741460434       -5.7253847743
 C        -2.9120580644       -4.7151158833       -4.3533341041
 O        -3.4565713421       -3.7637552643       -3.8465107746
 C        -2.6390469420       -6.0354549893       -3.4248505070
 C        -4.0753814756       -6.6351275961       -3.3148168198
 O        -4.4076490343       -7.6200265105       -3.9008181764
 C        -5.1723636038       -5.8183751669       -2.6163036961
 C        -6.5902475157       -6.5130944046       -2.6951143743
 C        -7.0083817284       -6.7317482322       -4.1851824783
 O        -6.9807307632       -5.7686344028       -4.8897964781
 C        -7.6407172706       -8.0511583093       -4.6760895387
 C        -7.1043756841       -8.3204958143       -6.1686442020
 O        -6.2597719957       -7.6812336673       -6.6512848622
 C        -7.8282769849       -9.4573539947       -6.8975824335
 C        -7.8542737040       -9.4443718309       -8.4014019103
 C        -8.6430070611       -8.2567449812       -8.7544824914
 O        -8.0406241955       -7.2325753351       -8.9704844610
 C       -10.3246819257       -8.1704395270       -8.7825750502
 C       -10.6875089064       -6.8413750687       -8.0491852983
 O        -9.8845296795       -6.1821232311       -7.4498046533
 C       -12.1819018099       -6.3835328668       -7.9854522831
 C       -12.4106068312       -4.9144801720       -7.4267343584
 C       -11.5620192138       -4.8930044718       -6.1056390933
 O       -11.6947458687       -5.7402216714       -5.2330703067
 C       -10.9483217118       -3.4026976852       -5.6703688669
 C       -10.1678702210       -3.5836670313       -4.2827738102
 O        -8.9371843011       -3.6076450777       -4.2414610364
 C       -10.9041959544       -3.5918899054       -2.9910316022
 C       -10.0491385649       -3.4455828034       -1.7184494891
 C       -10.8066137829       -3.2775606751       -0.4249173142
 O       -11.5941012177       -2.4072833042       -0.2775482826
 C       -10.4674712947       -4.2093422076        0.7329881092
 C       -10.3380958437       -5.8244814162        0.2535609402
 O        -9.3828915560       -6.4665064046        0.4919984329
 C       -11.5610574966       -6.3543207314       -0.4230463428
 C        -9.0699504846       -3.8924631265        1.3902941171
 C       -11.4822261978       -4.2208949267        1.9279658698
 C       -10.0621859385       -2.7751413077       -6.7920786076
 C       -12.1663737207       -2.3986656743       -5.5879930615
 C       -10.8333159487       -8.1504908448      -10.2679778865
 C       -11.1799769416       -9.3441937418       -8.1893150236
 C        -7.1491893412       -9.2350654344       -3.8734159221
 C        -9.2543294532       -7.8199250959       -4.6577242181
 C        -1.7209273204       -7.1120968715       -4.0223488155
 C        -2.2343910176       -5.5711220749       -2.0813163838
 C        -4.6346241306       -1.1921912992       -7.8262365669
 C        -6.2263234458       -2.4091384510       -6.0224915917
 C        -4.1864490848       -2.2731710420      -13.6330079911
 C        -2.4965942692       -3.5877397545      -12.2985625892
 C         2.1676815675       -1.3497067641      -12.9284474858
 C         3.1095798502        1.0325325869      -12.8576308406
 C         7.3826902675       -0.2696692379      -18.1752269231
 C         7.4714885703       -1.4872071004      -15.8469020954
 C         7.3832505490        6.0754969341      -17.7705744030
 C         5.8595351089        7.0167637114      -15.9990439275
 C         0.0906503290        2.9522803051      -18.1639138722
 C        -0.2457725018        4.9916054539      -19.5938383788
 C        -1.2255633246        5.4375220624      -13.0816489663
 C        -0.7125259083        7.9092857986      -12.7799535276
 H         2.9051291123        6.9256782307      -12.1185935992
 H         1.7659139508        8.1886156894      -12.2286972093
 H         2.6250195771        7.8425122160      -13.6377609897
 H        -2.2876310131        7.8987679765      -15.8383000379
 H        -2.2831156286        6.2408822228      -15.2244095037
 H        -0.6895673229        7.1874282450      -17.6934515916
 H        -2.3392211822        6.3441495569      -17.6476107464
 H         1.6041710020        6.8702562528      -18.3993581157
 H         2.7870050421        5.7993245043      -19.2461579310
 H         3.4363817478        6.2989675290      -16.3701043936
 H         3.6448364360        7.6634521872      -17.5033788501
 H         7.7754302202        3.3821673709      -16.1021963903
 H         7.2192298812        3.5941651044      -17.7782238814
 H         5.5296280015        1.9699642883      -17.4406136544
 H         5.3640714210        2.1612799853      -15.7435049785
 H         4.6706511282       -0.0499550756      -14.7966957569
 H         4.6815367243       -1.7149486373      -15.0916985083
 H         2.6171366062       -1.8491518650      -15.5786683937
 H         2.6210363849       -0.6918675448      -16.9887587992
 H        -0.2438048959       -0.4662010877      -11.4995035101
 H        -0.1646563954       -1.4093987378      -13.1106127948
 H        -2.1346943740       -0.8881759950      -13.7879353044
 H        -2.1516339619        0.7324986794      -12.8523974037
 H        -6.4123563327       -3.1582535897      -11.7491407471
 H        -6.0844884763       -1.4324569472      -11.8797912951
 H        -7.8741508440       -2.0684315625      -10.1282721756
 H        -6.9008854457       -0.9290409912       -9.8199432450
 H        -3.2785666741       -2.7813359202       -5.7790347385
 H        -2.4469099175       -2.9581789547       -7.1488901481
 H        -1.3740220234       -4.6356565005       -5.6554073893
 H        -2.5106111571       -5.6792307062       -6.1932747157
 H        -5.2838580046       -4.8174864659       -3.1768176242
 H        -4.8647621848       -5.4335910178       -1.5794251753
 H        -7.3256248281       -5.7868777832       -2.2808659095
 H        -6.6462406674       -7.3437800764       -2.1117354347
 H        -8.8977878809       -9.3401298055       -6.5356492541
 H        -7.3353330650      -10.2177370639       -6.4302724970
 H        -8.3304994132      -10.3623112961       -8.8078198846
 H        -6.8496671440       -9.4475712492       -8.8329917729
 H       -12.8576154773       -7.0328918762       -7.4649207510
 H       -12.4637762141       -6.3867447428       -9.0308605216
 H       -13.4863228824       -4.7699116232       -7.2401830804
 H       -12.0117002943       -4.2028536445       -8.1114735773
 H       -11.7597429079       -4.2779298253       -2.9866461677
 H       -11.6065789369       -2.6749820754       -2.9270719729
 H        -9.3919072355       -2.5744383406       -1.9769480098
 H        -9.3882005598       -4.2675056479       -1.4356924350
 H       -11.9461750482       -7.0886898116        0.2153974057
 H       -11.1974689751       -6.9125182752       -1.2944024019
 H       -12.2699230277       -5.6647264451       -0.6957985441
 H        -9.0899085550       -2.8602755483        1.6941241515
 H        -8.1509015524       -4.0668894315        0.7904008027
 H        -8.9112659545       -4.4337776754        2.2560469608
 H       -11.3636324885       -5.1029699816        2.5185757295
 H       -12.5026586060       -4.1152071177        1.4615274359
 H       -11.3167314889       -3.3467655056        2.5422947725
 H       -10.0558004173       -1.6654871336       -6.5650238235
 H       -10.4238722107       -2.8683008562       -7.8086386689
 H        -9.0461167865       -3.0470323593       -6.6915098274
 H       -12.8661297350       -2.7377885594       -4.7577125633
 H       -12.7300134914       -2.2001196837       -6.5070225573
 H       -11.6651497991       -1.4816674438       -5.4055347506
 H       -10.7485078124       -7.1807800482      -10.6865009522
 H       -11.8970333476       -8.2484187571      -10.4224377523
 H       -10.2941811965       -8.8527293437      -10.8020772411
 H       -11.2239889914      -10.2789106128       -8.8667764283
 H       -12.2210768893       -9.0833844924       -8.0035926445
 H       -10.8991782904       -9.8118780961       -7.1870563804
 H        -6.1377947260       -9.5224069629       -4.2209265773
 H        -7.8286602728      -10.0694117544       -3.8221119432
 H        -6.9315493714       -8.9947530397       -2.8082267016
 H        -9.4435990143       -7.6885652149       -3.5628375780
 H        -9.8619385707       -8.6701015893       -5.1428643525
 H        -9.5244613371       -6.8704845497       -5.1399232155
 H        -2.3543924063       -8.0524603012       -3.9931956808
 H        -0.7615866320       -7.2401981663       -3.5932632370
 H        -1.4875834281       -6.8544589085       -5.0634049242
 H        -2.3117652664       -6.4617378890       -1.4758994278
 H        -2.8645857279       -4.8165385621       -1.6884931517
 H        -1.1805270830       -5.1996907174       -2.1291364173
 H        -4.0628548717       -0.8267701063       -6.9224671851
 H        -5.2842731354       -0.3636824990       -8.0193772490
 H        -3.8856225599       -1.3963370709       -8.6017704567
 H        -5.4385680447       -2.4735487153       -5.2628795333
 H        -6.9154256451       -3.1868217828       -5.9901616699
 H        -6.7542065276       -1.4830459059       -5.8735320704
 H        -4.8071619163       -3.1584853404      -13.9602872697
 H        -3.2869544098       -2.3780102873      -14.2953377081
 H        -4.7711069052       -1.3498132569      -13.7210785663
 H        -3.1019167333       -4.4339766791      -12.7121833992
 H        -2.0949094554       -3.9011557912      -11.2694263379
 H        -1.7081403007       -3.3549306294      -12.9982918992
 H         1.5019986609       -2.0224768350      -13.3417460068
 H         1.9505842056       -1.2137370612      -11.8279345988
 H         3.1592613715       -1.7797682533      -13.0312619860
 H         4.0333760206        1.0405999497      -13.3904227455
 H         3.2744544656        0.9241387816      -11.7293389360
 H         2.7336876141        2.0987431105      -13.0414560284
 H         7.1499484526        0.6822533788      -18.6778465296
 H         7.1879541094       -1.1128696651      -18.7368527582
 H         8.4868680707       -0.1157754968      -18.0476514968
 H         8.5618919874       -1.2782392124      -15.9767157172
 H         7.2847137734       -2.5453488876      -16.2431305077
 H         7.3165064033       -1.4477591050      -14.8021531044
 H         8.2276617747        5.7015337772      -17.1756671056
 H         7.3667788031        7.0842132539      -18.2185756344
 H         7.4063938441        5.5284660742      -18.6719058729
 H         5.1599276845        6.7352834584      -15.1569715406
 H         5.4267556710        7.8407859010      -16.4349024127
 H         6.7736016981        7.2695797846      -15.5318761746
 H        -0.5102927262        2.6529837202      -17.3571946131
 H         1.1471853885        2.6169507901      -18.0911064795
 H        -0.4779950630        2.3888212984      -19.0542824641
 H         0.6620664773        5.3698096908      -20.0899515518
 H        -0.8409941511        5.8891085221      -19.6401325516
 H        -0.7178059306        4.1793302091      -20.1441235963
 H        -1.1325773137        5.2377890234      -12.0139208821
 H        -0.9993060208        4.5629453627      -13.7711752443
 H        -2.2201807766        5.7882263456      -13.3144693706
 H        -0.4502141920        8.7748116650      -13.2403332606
 H        -0.4009093630        7.9616318147      -11.7744270182
 H        -1.7856179926        7.9464176057      -12.7206181145
 Na        0.9323781844        3.4348622630      -14.9793744310
 Na       -7.2696911987       -5.5906311707       -7.1998149855
