232

 C         2.2874743674        7.4093391568      -12.6886529398
 C         1.2857938021        6.2411427525      -13.0532461785
 O         1.6472803454        5.0501039064      -13.1464629312
 C        -0.1762894637        6.5500536278      -13.4361455014
 C        -0.1307424571        6.9068310488      -15.1095519542
 O         0.8419986471        7.3288277081      -15.5882812743
 C        -1.5718080763        6.9255772073      -15.8360727682
 C        -1.4814699634        6.3220187324      -17.1872365998
 C        -0.8103126294        4.9295010202      -17.1292040216
 O        -0.8396213948        4.2930065949      -16.0872361909
 C         0.0432387201        4.3980976634      -18.3631845462
 C         1.5924706415        4.9348627507      -18.0106415259
 O         2.0191665454        4.5019103942      -16.9080440931
 C         2.2260958817        6.0028230082      -18.8250429228
 C         3.2770587415        6.7655135687      -18.0706309188
 C         4.6122265712        5.9492183465      -18.0994407223
 O         4.9131814300        5.3981418822      -19.1649217510
 C         5.7031493997        6.0248992948      -16.9352785435
 C         5.7879694105        4.5807217726      -16.4108015444
 O         5.0891703049        4.3410282317      -15.4406643678
 C         6.8582893964        3.4661850542      -16.9430444304
 C         6.1886362625        2.0665686637      -16.9251268392
 C         6.9462445343        0.8453233000      -16.1679741164
 O         7.3973144913        1.0164952985      -15.0591946491
 C         6.9584285417       -0.6438513924      -16.7579669229
 C         5.3609729885       -0.8853406015      -16.8466481802
 O         4.6808627080       -0.9723853391      -17.8388880964
 C         4.5711429518       -0.8369251426      -15.5063361542
 C         2.9789150203       -0.8741909006      -15.7972111508
 C         2.2529935253        0.2364521704      -14.9928982083
 O         1.8073290864        1.1406217066      -15.6528609239
 C         2.1453657530        0.2670239081      -13.3483774747
 C         0.5603634356        0.6268925575      -13.0221105672
 O         0.2335369359        1.7670529794      -13.2757295464
 C        -0.3178830116       -0.3946479141      -12.4393259170
 C        -1.8022513778       -0.2918877875      -12.9056171300
 C        -2.8095132168       -0.9547389509      -11.9106743734
 O        -2.9212268254       -0.5798004142      -10.7387151021
 C        -3.6382096810       -2.3265517583      -12.2793058096
 C        -4.5872786763       -2.8158427350      -11.0596739531
 O        -4.0859301225       -3.4132476277      -10.1350143384
 C        -6.0703913078       -2.4406272993      -11.0226987501
 C        -6.4630087802       -1.6415623283       -9.7152226318
 C        -6.3007943508       -2.7731448861       -8.4958697416
 O        -6.9623693835       -3.7481863223       -8.6687374494
 C        -5.3005131426       -2.5731757692       -7.3986764992
 C        -4.4454512010       -3.8358858847       -7.0434985484
 O        -5.0428305202       -4.8556479166       -6.9144934039
 C        -2.9149755292       -3.7620469859       -6.8174943239
 C        -2.4267410620       -4.9426482342       -5.9140907171
 C        -2.9044994972       -4.8028796487       -4.4779340423
 O        -3.3271478935       -3.7775777581       -3.9695333693
 C        -2.7821743689       -6.1016114234       -3.5516450231
 C        -4.2068060622       -6.6347494688       -3.4011920887
 O        -4.7185823559       -7.3911335135       -4.2177152537
 C        -5.2081471178       -5.9667507737       -2.2982513679
 C        -6.5946986741       -6.6005122262       -2.5453978800
 C        -6.9003936240       -6.7279244407       -4.1469414172
 O        -6.8876627747       -5.7289897551       -4.8382612268
 C        -7.5737128708       -7.9754309423       -4.6444113263
 C        -7.1547860142       -8.2474473561       -6.1805618330
 O        -6.6217471680       -7.4348589637       -6.8108276597
 C        -7.6232289672       -9.5850341881       -6.8399242981
 C        -7.6970344973       -9.1505050940       -8.4164304614
 C        -8.5731456576       -7.9129906651       -8.7188296368
 O        -8.0960861780       -6.9076867595       -9.1633294942
 C       -10.2900185268       -7.9507542060       -8.6079566106
 C       -10.7907517558       -6.6778308509       -7.8958705406
 O       -10.0197119981       -5.9702751962       -7.3433350045
 C       -12.2678174999       -6.2747395224       -7.7959612013
 C       -12.6190213240       -4.8800548157       -7.1429404712
 C       -11.7510665011       -4.7284937938       -5.9262807160
 O       -11.6313522715       -5.6693793050       -5.1810838795
 C       -11.0895074545       -3.3677343249       -5.5812064634
 C       -10.1534182180       -3.6387847461       -4.2876825350
 O        -8.9435519307       -3.7340357797       -4.5044170059
 C       -10.7539440024       -3.8367864847       -2.9558067142
 C        -9.9524451859       -3.2190167203       -1.7726853416
 C       -10.8136128014       -3.1771739998       -0.5121049227
 O       -11.7664944926       -2.4876945784       -0.4270690011
 C       -10.5108944277       -4.3212255221        0.6464885983
 C       -10.2785580839       -5.7450729633        0.0962291422
 O        -9.2439003124       -6.3233609508        0.1364016242
 C       -11.5727212573       -6.3861911150       -0.5535968995
 C        -9.1646116531       -3.8306286507        1.2986094737
 C       -11.7056847532       -4.1594243763        1.7109008658
 C       -10.2427322744       -2.8415682642       -6.7470932136
 C       -12.1897895934       -2.2712524488       -5.3570613326
 C       -10.7829088168       -8.0132689946      -10.0772086931
 C       -10.9047480001       -9.1120564087       -7.8367475600
 C        -7.1786283565       -9.2024531316       -3.7907824778
 C        -9.0907381067       -7.7716951460       -4.3438746210
 C        -1.9139759265       -7.1911804405       -4.2169445951
 C        -2.2633939149       -5.6736290186       -2.1783466146
 C        -4.3169983344       -1.2967755847       -7.7548726216
 C        -6.2258339114       -2.2968087363       -6.1101403592
 C        -4.4289839780       -2.2232343367      -13.5814069385
 C        -2.5108226586       -3.3818774309      -12.4515875104
 C         2.5727211880       -1.0617397793      -12.8203688792
 C         2.9904504062        1.4290315290      -12.7387782810
 C         7.6972462368       -0.7127047809      -18.2000432337
 C         7.6179940638       -1.6910841915      -15.8009224344
 C         7.0227834008        6.5452567975      -17.5808086836
 C         5.4955013229        6.9662516743      -15.7678012948
 C        -0.0564432967        2.8870777607      -18.3383328423
 C        -0.5094827749        4.9071428878      -19.7210572772
 C        -1.2254670497        5.3855848226      -13.2269992740
 C        -0.6853456997        7.6943684362      -12.5621211122
 H         3.2457383526        7.2428538460      -13.1666870744
 H         2.5221671566        7.4565420644      -11.6119796301
 H         1.9015054700        8.4214746825      -12.9147501599
 H        -1.9491110182        7.9519875479      -15.8505228609
 H        -2.3102099736        6.4025658887      -15.2644731584
 H        -0.9838877251        6.9373468215      -17.8461160211
 H        -2.5195566896        6.2072717167      -17.5005430398
 H         1.3804904996        6.6690208016      -19.0691497222
 H         2.6122904381        5.4300158032      -19.6716915808
 H         2.8226725119        6.8874928219      -17.1098519905
 H         3.4958643701        7.7310401884      -18.5434459729
 H         7.7611057406        3.4874424504      -16.3908285925
 H         7.0945270592        3.6917373725      -17.9845115914
 H         5.9986179294        1.7994713631      -17.9635458716
 H         5.2155697212        2.0278953169      -16.3654235490
 H         4.9360181950        0.1067362681      -14.9620082029
 H         4.7571461974       -1.8002724556      -14.9707422552
 H         2.5047017146       -1.7565602606      -15.5711055256
 H         2.9117558064       -0.7217068975      -16.8819656688
 H        -0.2326490567       -0.1670173188      -11.3599919528
 H         0.0345238685       -1.4196093449      -12.5980391867
 H        -1.9527906501       -0.7119759431      -13.9386441855
 H        -1.9559537247        0.7504082811      -12.9370671628
 H        -6.5863545454       -3.3887350814      -11.0378087906
 H        -6.3457871044       -1.9065217693      -11.9353507003
 H        -7.5458102435       -1.2682054749       -9.8211893838
 H        -5.8361777193       -0.7018767120       -9.5779998371
 H        -2.7092301442       -2.8182597183       -6.2282536302
 H        -2.2926466681       -3.5564441122       -7.6534815146
 H        -1.3539990145       -4.9606473115       -5.8928677069
 H        -2.5834168352       -5.9355640761       -6.4280003777
 H        -5.2106688321       -4.8710502983       -2.2269875983
 H        -4.7994507327       -6.2934526061       -1.3914651438
 H        -7.4935505144       -6.0866047995       -2.1412713179
 H        -6.5087582999       -7.4884465637       -2.0821694950
 H        -8.5895945890      -10.0201653189       -6.4020423913
 H        -6.7867620007      -10.2944312202       -6.8829314266
 H        -7.8908031464      -10.1151306461       -8.9299524923
 H        -6.6573035147       -8.8756150235       -8.6546118874
 H       -12.8594097984       -7.1240667139       -7.4432649734
 H       -12.5667762530       -6.0726517399       -8.8654044390
 H       -13.7348660790       -4.7320896202       -6.9481917535
 H       -12.4207410280       -4.1683444080       -7.9781272289
 H       -11.0840823506       -4.7882483063       -2.6317068508
 H       -11.7225218309       -3.2916132985       -3.0456710896
 H        -9.7285324768       -2.2143951931       -2.0153023307
 H        -9.0710268079       -3.8525417279       -1.5939429238
 H       -12.4367475623       -6.1440911735        0.0813344938
 H       -11.5673356316       -7.5200994839       -0.6859618097
 H       -11.7612609727       -5.8728091374       -1.5119410628
 H        -9.2542400649       -2.9018987793        1.9271006359
 H        -8.4238041044       -3.5886716605        0.4917524019
 H        -8.7570178105       -4.5352423517        1.9711599939
 H       -11.1658577831       -4.1129739061        2.6544727651
 H       -12.4879593272       -4.9522734755        1.6453030121
 H       -12.1857187159       -3.2149727798        1.6263345241
 H        -9.4313704810       -2.1271628816       -6.4701421638
 H       -10.9094368480       -2.3106222157       -7.5065379118
 H        -9.6129769566       -3.6073982085       -7.1346564125
 H       -13.0484551280       -2.6008237679       -4.7844704880
 H       -12.6660299248       -2.2579230636       -6.3463246444
 H       -11.8157595663       -1.3037645334       -5.0794063585
 H       -10.4658200646       -7.1782711470      -10.7902151859
 H       -11.9169038768       -7.9869597008      -10.1111253648
 H       -10.5113125945       -8.9703338162      -10.5234630124
 H       -10.2901138649       -9.9618631390       -7.9869283427
 H       -11.8414972158       -9.3846570623       -8.1201901084
 H       -10.8543904500       -9.0819415733       -6.7720282597
 H        -6.2138506087       -9.1417973015       -3.4135606225
 H        -7.3876140487      -10.1425739244       -4.2379953108
 H        -7.8035934646       -9.1671527374       -2.8880802624
 H        -9.3208246022       -7.5802033607       -3.3147346087
 H        -9.5227145305       -8.7388968006       -4.5427082394
 H        -9.4647512828       -7.0733567476       -5.0846694129
 H        -1.6278897689       -8.0407514545       -3.5577729181
 H        -1.0029800327       -6.8026525933       -4.6257164287
 H        -2.5561714098       -7.6498683282       -5.0056103871
 H        -2.2697799776       -6.4980085597       -1.4240915963
 H        -2.8289128784       -4.8329282030       -1.8956258837
 H        -1.1667968710       -5.4341107502       -2.3269321755
 H        -3.4291149493       -1.4252417550       -7.1083484248
 H        -4.7676564586       -0.3700434989       -7.4228708351
 H        -4.0545532223       -1.2376096719       -8.8229153508
 H        -5.5888687759       -1.9537312440       -5.2495459866
 H        -6.6674108886       -3.2719426754       -5.8856438383
 H        -7.0374242636       -1.5880435068       -6.3561163155
 H        -5.0302320226       -3.1207421583      -13.7910122575
 H        -3.7433036909       -2.0454799003      -14.4097431872
 H        -5.0481846509       -1.3432064438      -13.5825052308
 H        -3.0361109409       -4.3051290630      -12.6749844116
 H        -2.2110632450       -3.5285394716      -11.4382203786
 H        -1.6791867048       -3.2713006056      -13.1159755669
 H         2.0255979818       -1.8990489573      -13.2135764278
 H         2.6169560921       -1.1962164079      -11.6620250820
 H         3.5928123058       -1.1870637196      -13.1803938767
 H         4.0194315614        1.3393204957      -12.6924354297
 H         2.5768695170        1.7024030106      -11.7760695613
 H         2.7897787107        2.2833495865      -13.3398816617
 H         7.1802119689       -0.2079849633      -19.0250173439
 H         7.7445037445       -1.7638151501      -18.4237191382
 H         8.7100469930       -0.3174361405      -18.1676058550
 H         8.6498742211       -1.4734712987      -15.7001215092
 H         7.5504799068       -2.6904425091      -16.2693519406
 H         7.0762692153       -1.7724786522      -14.8648986205
 H         7.7895152701        6.2433925549      -16.8995380922
 H         6.8588359242        7.6351471430      -17.8179505335
 H         7.2768312885        6.0366805768      -18.4580963020
 H         4.5021706074        6.7467080220      -15.3029683458
 H         5.5716229694        7.9860212341      -15.9261858164
 H         6.2105979614        6.6596114825      -15.0188387360
 H        -1.0376594535        2.5499096056      -18.4578053055
 H         0.3773153062        2.6374271774      -17.4183814806
 H         0.4418990112        2.2944942502      -19.2128304339
 H        -0.3856080031        4.2533764333      -20.6007996667
 H        -0.0508813871        5.7876286578      -20.0863591321
 H        -1.6001836795        5.0001190369      -19.5920165850
 H        -1.1257051699        5.0928753230      -12.1845888442
 H        -1.0506159622        4.5957716891      -13.9557859871
 H        -2.1864907955        5.7765756880      -13.2513095116
 H        -0.1223642338        8.5755860431      -12.3518919829
 H        -0.9579787325        7.2738334569      -11.5209592872
 H        -1.6496870254        8.1984240777      -13.0002498998
 Na        1.1930376654        3.4135965725      -14.8547055436
 Na       -7.4039423779       -5.4347105766       -6.9974242959
