232

 C         2.4371605834        6.4416939573      -12.1510920042
 C         1.4212386824        5.7811889697      -13.1005539770
 O         1.7488942875        4.7086661047      -13.6172504044
 C        -0.0435053305        6.3752528824      -13.3051541022
 C        -0.2413870281        6.5537433890      -14.9456273831
 O         0.6725651845        6.3791575303      -15.6524305329
 C        -1.6559543955        6.5689497123      -15.6106928413
 C        -1.5477278850        6.1703243076      -17.0442812378
 C        -1.0340824779        4.7421366001      -17.1068590425
 O        -1.1989388954        3.9475420904      -16.2076657472
 C         0.0054414722        4.2773266275      -18.3252942055
 C         1.4513987834        4.8613478056      -18.1508101150
 O         2.1484658020        4.5587432906      -17.1744721924
 C         2.0899079376        5.7138934836      -19.2164385366
 C         3.3473754672        6.4509589152      -18.6907686253
 C         4.4489517075        5.4586226055      -18.2234206538
 O         4.6688859376        4.4037534922      -18.8436390303
 C         5.1892859010        5.6795963177      -16.7925610900
 C         5.5681733438        4.1911559293      -16.4536508137
 O         4.9996691958        3.6117393105      -15.5840390656
 C         6.7281059439        3.6281047160      -17.2275564872
 C         6.3298495279        2.1387006367      -17.5061776810
 C         6.6966106326        1.1177534708      -16.3779305484
 O         7.0205350118        1.4790406424      -15.2790682012
 C         6.6971396873       -0.5346849718      -16.6035438504
 C         5.0994273559       -0.8053066391      -16.4637571211
 O         4.4205817570       -0.8944365317      -17.4505537231
 C         4.5007219843       -1.2694771791      -15.0718668211
 C         2.9628485809       -0.9991746916      -15.1695162582
 C         2.6611909011        0.4115651109      -14.7505087306
 O         2.6569392582        1.2985978631      -15.5435496922
 C         2.3477099794        0.7691264127      -13.2140845338
 C         0.7170965834        0.9316597653      -13.2502748866
 O         0.1603231394        1.6621798758      -14.0153406616
 C        -0.1811672724        0.0750785672      -12.4315606095
 C        -1.2886251394       -0.5859729094      -13.1503715269
 C        -2.4301577055       -1.0394551108      -12.2510309203
 O        -2.5742144537       -0.5157003028      -11.1177027006
 C        -3.3304534846       -2.2182472180      -12.6897127462
 C        -4.2875369647       -2.5701380751      -11.2902387793
 O        -3.8254234792       -3.3499045118      -10.4606346227
 C        -5.7065247957       -1.9530138583      -11.0059996076
 C        -5.6163153341       -1.3767623152       -9.5397504526
 C        -5.9346206921       -2.5865773189       -8.4762994056
 O        -6.8479303094       -3.3789806636       -8.5984592246
 C        -5.1329663169       -2.3450053423       -7.0856292954
 C        -4.6609329365       -3.7574327234       -6.6178473548
 O        -5.2770121394       -4.3937558826       -5.7895482253
 C        -3.3531562270       -4.3708148249       -7.2112586022
 C        -2.9451271835       -5.5603127032       -6.2215521321
 C        -2.6316849097       -5.1307546112       -4.8453182126
 O        -2.5456122478       -3.9728093757       -4.5478170173
 C        -2.6022374152       -6.2883543756       -3.7618257524
 C        -4.1546882493       -6.7820586594       -3.5336349329
 O        -4.5193766682       -7.7658666193       -4.1562453389
 C        -5.0825768150       -5.8899651724       -2.8087667432
 C        -6.3730299873       -6.7200477737       -2.4343442497
 C        -7.2315468966       -6.8357049468       -3.7348690175
 O        -7.4527934482       -5.7774829700       -4.3523075567
 C        -7.7166487205       -8.1372402321       -4.3918100943
 C        -7.1949634668       -8.1831657975       -5.9351890103
 O        -6.6601429296       -7.2079388616       -6.4066505897
 C        -7.5353311413       -9.4650327957       -6.6891070240
 C        -7.9932970144       -9.0229321618       -8.1090666905
 C        -8.6606362375       -7.6125948333       -8.3783103226
 O        -8.0690474794       -6.5739216615       -8.5791276059
 C       -10.1602877170       -7.6496786621       -8.6158560033
 C       -10.8128473448       -6.5540842400       -7.7308540235
 O       -10.0174721412       -5.8203636730       -7.0969575365
 C       -12.3501636592       -6.2710570840       -7.5824068203
 C       -12.5860770655       -4.7275368926       -7.2269550257
 C       -11.9648098063       -4.3916490094       -5.7978130867
 O       -12.2567671882       -5.1648090322       -4.9476043955
 C       -11.2965726248       -2.9717810390       -5.6065214652
 C       -10.0567577378       -3.2105693679       -4.5633909649
 O        -8.8935767309       -2.9848732411       -4.9515816329
 C       -10.3100380746       -3.8860683503       -3.2028417413
 C       -10.0380694450       -2.9675268248       -1.9937710580
 C       -10.9675057948       -3.2330594475       -0.7253020261
 O       -12.0912206510       -2.8732495924       -0.6899262916
 C       -10.5099630870       -4.1797976120        0.4349940059
 C       -10.3214766106       -5.6375090177       -0.2008322026
 O        -9.3528777795       -5.8491553155       -0.8842921889
 C       -11.2454145607       -6.8354776087        0.0903562080
 C        -9.0687313276       -3.9515242064        0.9428402822
 C       -11.4810282782       -4.0355271817        1.5166992545
 C       -10.8493326561       -2.2483338789       -6.8891663450
 C       -12.3425536056       -2.0800162969       -4.8066737104
 C       -10.4201492134       -7.4351079663      -10.1592613584
 C       -10.7212104485       -9.0054615802       -8.1491732842
 C        -7.2848153062       -9.4271761275       -3.6624393696
 C        -9.2331111641       -8.2209273751       -4.4096139486
 C        -1.7678112621       -7.5654483253       -4.2064201813
 C        -2.0726582966       -5.6847282055       -2.4494048156
 C        -3.7687401800       -1.4852271985       -7.1824575120
 C        -6.0690236911       -1.6575014892       -6.0521549946
 C        -4.2989502916       -1.8174642382      -13.7483376079
 C        -2.4053970465       -3.5048369845      -12.9395161798
 C         2.7398889346       -0.3323528108      -12.2815824793
 C         3.0950921216        2.0929276792      -12.8074023752
 C         7.1576835615       -0.9921118731      -18.0093643911
 C         7.5547953408       -1.1790296308      -15.3825670267
 C         6.3684185933        6.7203286035      -16.9463049769
 C         4.3056941277        6.3282623670      -15.7135592886
 C         0.1784511137        2.7118616689      -18.3395126430
 C        -0.5817906911        4.6663979802      -19.6842678017
 C        -1.0087469138        5.2423425397      -12.7834418166
 C        -0.2971903919        7.6984250760      -12.6884606090
 H         3.2378566958        5.7702570586      -12.0644484020
 H         2.1120875424        6.6585632557      -11.1519691968
 H         2.9087792074        7.3207183753      -12.5359484985
 H        -2.2058801661        7.5240798990      -15.5827961260
 H        -2.2199887871        5.7962233376      -15.0545328530
 H        -0.9095021790        6.8215972971      -17.6487139930
 H        -2.5971871877        6.2477176266      -17.5474918682
 H         1.3026103045        6.4724295024      -19.4433476717
 H         2.2348715481        5.0470878022      -20.0635826866
 H         3.0391091727        7.0973227234      -17.8733463332
 H         3.7401720349        7.0271134901      -19.5828451974
 H         7.7114683027        3.6622425274      -16.7652342712
 H         6.7131486159        4.2070870621      -18.2075976807
 H         6.8509349035        1.8402646999      -18.4183457807
 H         5.2671229957        1.9658085032      -17.5377417899
 H         4.9032437627       -0.7370196527      -14.2580237037
 H         4.7666842420       -2.2908870634      -15.0579905373
 H         2.2959740440       -1.6594136113      -14.6328296169
 H         2.5308571240       -0.9707277074      -16.2321874668
 H        -0.5832015583        0.6146932451      -11.5427304253
 H         0.2599441528       -0.6910771772      -11.8266461441
 H        -0.9357874286       -1.3253236036      -13.9051308734
 H        -1.6788426584        0.1693092666      -13.8807378133
 H        -6.5054129787       -2.6667313776      -11.2824336568
 H        -5.8007189832       -1.1368873786      -11.7305912261
 H        -6.4657526278       -0.8407070145       -9.3975637842
 H        -4.6972081780       -0.9575524035       -9.3677790809
 H        -2.4955212434       -3.6406204743       -7.1312450129
 H        -3.4781629859       -4.7399916640       -8.2217689379
 H        -1.9682594875       -5.8878091127       -6.6140782005
 H        -3.6478013855       -6.3813144016       -6.3708808191
 H        -5.5089953807       -5.0409060156       -3.4999157035
 H        -4.5727573461       -5.5149843600       -1.9601809983
 H        -7.0133099044       -6.1146624851       -1.6172435114
 H        -6.0980687960       -7.6619037781       -1.9640195042
 H        -8.3476234428      -10.1013752809       -6.3073612594
 H        -6.8514598669      -10.3082797275       -6.8633522983
 H        -8.6257188950       -9.8351643513       -8.4809472022
 H        -7.0814846074       -8.9592786694       -8.6826974141
 H       -12.6803137044       -6.9367415671       -6.8046892905
 H       -12.8548588296       -6.6170496364       -8.4875767978
 H       -13.6004205394       -4.5273114701       -6.9678162783
 H       -12.3937713598       -4.1321618554       -8.0905407623
 H        -9.5629815740       -4.7025575160       -3.2278896687
 H       -11.3713063214       -4.1541437894       -3.2031652740
 H       -10.2669219834       -1.9404473341       -2.2599540120
 H        -8.9247646531       -3.0948747061       -1.8324116910
 H       -11.7543059609       -7.2392010047       -0.7234193537
 H       -11.9450419917       -6.6602048593        0.9218335161
 H       -10.5990068411       -7.5670728130        0.5003066890
 H        -8.9045906228       -2.9877066501        1.4575458021
 H        -8.3222242782       -3.9803869951        0.1536116218
 H        -8.8022925746       -4.7070613191        1.5957445310
 H       -11.0915832086       -4.5936762108        2.4079061059
 H       -12.5046058344       -4.4417926964        1.3675317690
 H       -11.5466440333       -2.9990692361        1.7358602803
 H       -10.4746428245       -1.2673659373       -6.7829747163
 H       -11.5544340250       -2.2865767689       -7.7621693619
 H       -10.0530302421       -2.7844739801       -7.3280190463
 H       -12.4372548381       -2.3837913261       -3.7881186063
 H       -13.2491121824       -1.8640126583       -5.4027845412
 H       -11.8872356556       -1.0921155301       -4.7143781250
 H       -10.1015151140       -6.4622637613      -10.5129559929
 H       -11.3799923656       -7.7420520401      -10.5049071437
 H        -9.7824212085       -8.0344725600      -10.7355033116
 H       -10.5442616062       -9.8379378115       -8.9058287913
 H       -11.8019848902       -8.9811775327       -7.9790327712
 H       -10.3332700560       -9.2719127245       -7.0920752509
 H        -6.3705876754       -9.2637741986       -3.1364973099
 H        -7.0093498824      -10.2499532171       -4.3065669667
 H        -8.0652810986       -9.7848468189       -2.9696962274
 H        -9.5661940783       -8.5391459293       -3.3922607946
 H        -9.7372737156       -8.8304092554       -5.1821013076
 H        -9.6360866332       -7.1326837227       -4.5057977617
 H        -2.0922525489       -8.5516815608       -3.7928805187
 H        -0.7397224617       -7.4627097038       -3.8209490576
 H        -1.5882854179       -7.7424317089       -5.3171802711
 H        -2.4705374265       -6.2636043089       -1.5849269229
 H        -2.3444273366       -4.6865263755       -2.3385879977
 H        -0.9676593099       -5.7069405936       -2.4143754286
 H        -3.1736069978       -1.7896777042       -6.2634716353
 H        -3.9839750469       -0.4030386160       -7.1393008209
 H        -3.2867552376       -1.8297324400       -8.1314989655
 H        -5.5478143734       -1.5786134683       -5.0751953956
 H        -6.9047477770       -2.3235097873       -5.8394695380
 H        -6.3984662150       -0.6681652503       -6.4021204818
 H        -5.2465205736       -2.4751081055      -13.6315197778
 H        -3.9629126641       -1.9819990442      -14.7992743234
 H        -4.6913447429       -0.7804353332      -13.7870949306
 H        -2.9692975763       -4.3127737630      -13.4236963798
 H        -2.1062775287       -3.8274466936      -11.9642938304
 H        -1.5926506928       -3.1624717367      -13.5586876724
 H         2.2804453813       -1.2912282010      -12.3568984129
 H         2.5729522805        0.0751894411      -11.2264287226
 H         3.7749027119       -0.5309404428      -12.2817694298
 H         4.1308161087        1.8431728320      -12.6883629659
 H         2.8787672255        2.5793409511      -11.8031223212
 H         3.0314803435        2.8308654503      -13.6273828748
 H         6.2988105952       -1.0053345006      -18.7121881717
 H         7.5035655454       -1.9963782369      -17.9871705917
 H         8.0312672327       -0.4258171677      -18.3630430384
 H         8.6214026963       -0.9951122440      -15.6488182707
 H         7.4750293603       -2.3151460710      -15.5046617357
 H         7.3391430292       -0.8242901877      -14.3974917139
 H         7.0579049144        6.4858337702      -16.1586339831
 H         6.1496555565        7.7738639196      -16.5991855519
 H         6.7091654070        6.7267651270      -17.9370002241
 H         3.2103121530        6.0945215903      -15.9427725697
 H         4.4111784276        7.3604579694      -15.6001484929
 H         4.5093950635        5.7592233512      -14.8260607604
 H        -0.5250663622        2.3168173714      -19.0309498795
 H        -0.1138631568        2.1622986675      -17.4715838941
 H         1.3092150269        2.5033824121      -18.6388077761
 H        -0.1697759537        3.9411286148      -20.4158157339
 H        -0.5585105883        5.6923587717      -19.9706791537
 H        -1.6849918866        4.4853411873      -19.7017266778
 H        -0.8121057405        5.1827797410      -11.7110096266
 H        -0.7561957255        4.2677702551      -13.2789093942
 H        -1.9464887654        5.5593496512      -13.0655707495
 H         0.4452223697        8.3639564021      -12.8252295279
 H        -0.4854154325        7.7167294633      -11.6642699742
 H        -1.2115148338        8.0873626862      -13.0696621598
 Na        1.1993573229        3.3040501118      -15.3485289500
 Na       -7.6600270120       -4.9585639333       -6.6713334635
