232

 C         1.8624440569        6.1360943801      -11.5314395158
 C         1.2788925492        5.6157963900      -12.8859827314
 O         1.8471238201        4.6770605755      -13.4650514072
 C        -0.1029570952        6.2771625385      -13.4043064946
 C        -0.3094146625        6.1699483296      -14.9414400107
 O         0.5983677452        6.3019996143      -15.6903794598
 C        -1.7424309148        5.8603864859      -15.4841965483
 C        -1.6320343556        5.7212297793      -16.9866635660
 C        -0.8417916698        4.3169524081      -17.3235453806
 O        -0.6410396988        3.5054567664      -16.4187877407
 C        -0.2310336240        3.9921467093      -18.8027117510
 C         1.2554984309        4.3927508804      -18.5270644558
 O         1.8696407481        3.8240355786      -17.6805790849
 C         1.8692525119        5.7216338570      -19.2298308794
 C         3.0469003650        6.3481917668      -18.5282455681
 C         4.0745235361        5.2449593883      -18.2115548841
 O         4.2121479509        4.2951265279      -18.9979234881
 C         4.9590374023        5.4178480834      -16.9106287922
 C         5.3740875911        3.9061221966      -16.5641663502
 O         4.5197337178        3.1733131620      -16.1742743087
 C         6.6756149254        3.4819800176      -17.1047806047
 C         6.7662024975        1.9981303371      -17.3478403048
 C         7.0716874819        0.9399968291      -16.2376207187
 O         7.3991894834        1.3250041492      -15.1154356275
 C         6.7740268728       -0.5530549774      -16.5941628056
 C         5.2060706981       -0.5902198104      -16.3260874133
 O         4.4196776426       -0.5379698977      -17.2560576553
 C         4.6461707761       -0.9685326648      -14.7939439714
 C         3.1241273895       -1.1203523531      -14.7998792066
 C         2.4228392584        0.1921719178      -14.5644168649
 O         2.1845088664        0.9525989949      -15.4902351983
 C         2.1734115626        0.6998595740      -13.0154324159
 C         0.7049066471        1.1302559261      -13.0260164182
 O         0.3129580898        2.0349196063      -13.7403969242
 C        -0.1537884300        0.4216904908      -12.0400694508
 C        -1.1924808702       -0.5684132624      -12.7744113124
 C        -2.4660601651       -0.9405395301      -12.0174600778
 O        -2.8168123243       -0.2951784983      -11.0364506293
 C        -3.3376071566       -2.3379315192      -12.4056122696
 C        -3.9554237388       -2.7292921516      -11.0097396165
 O        -3.3527404047       -3.4441847462      -10.2781409527
 C        -5.3067182928       -2.0827421291      -10.6874719650
 C        -5.4462644411       -1.3622769973       -9.3618306350
 C        -5.7540152062       -2.3047827509       -8.1068621024
 O        -6.8106501041       -2.9356000478       -8.1283374532
 C        -4.8669034448       -2.3104470030       -6.8599260845
 C        -4.8741878345       -3.7481163409       -6.4187920541
 O        -5.3150325682       -3.9867763538       -5.3308600341
 C        -4.2382672177       -4.9224187556       -7.2315479521
 C        -3.6076741079       -6.0230256775       -6.3253981158
 C        -2.6607408690       -5.5555176316       -5.1928655462
 O        -1.9806753208       -4.6025184856       -5.2746211395
 C        -2.4820383726       -6.5413126795       -3.8757415084
 C        -3.9213335539       -7.0681108921       -3.3454314600
 O        -4.1366213036       -8.2415362923       -3.4424211848
 C        -4.9365755336       -6.0311403875       -2.8759863653
 C        -6.2901446584       -6.5581813130       -2.3345372893
 C        -7.2439528632       -6.6628483926       -3.5748546980
 O        -7.6003324666       -5.6197098958       -4.1808439932
 C        -7.7821432327       -8.0460585422       -4.1387069221
 C        -7.2776015760       -8.0675093764       -5.6878217782
 O        -6.3639961688       -7.3120060089       -6.0281312236
 C        -7.9600451910       -8.9908312052       -6.7694828785
 C        -7.6926200869       -8.4905682123       -8.2680864042
 C        -8.5023173384       -7.1789412361       -8.4839788035
 O        -7.9245542357       -6.1159294194       -8.4519532416
 C        -9.9894638905       -7.0946085191       -8.7670479456
 C       -10.6603334438       -6.1757888056       -7.6325365784
 O        -9.8770473050       -5.7614790817       -6.7293819381
 C       -12.1495949116       -5.8623604848       -7.7750829232
 C       -12.6294280071       -4.4712478379       -7.3465900277
 C       -12.4441226571       -4.0832522029       -5.8292858858
 O       -12.8886291516       -4.7527256918       -4.9629609288
 C       -11.7494872260       -2.6934932472       -5.4876480646
 C       -10.3218600481       -3.2524940863       -4.9724401695
 O        -9.4076210788       -3.1454963115       -5.8000968370
 C       -10.1897585559       -3.8377906803       -3.5867830384
 C       -10.0888227870       -2.7915997728       -2.4451006243
 C       -10.9050701606       -3.3885235362       -1.1722610469
 O       -12.1194623231       -3.3598214075       -1.2364995286
 C       -10.0434214729       -4.1109349276       -0.0079080420
 C       -10.0357114864       -5.5998479426       -0.5271526068
 O        -9.3132928934       -5.8929198653       -1.4855777125
 C       -10.8938368423       -6.5833330492        0.0775609847
 C        -8.4992127947       -3.6186819504        0.0467028714
 C       -10.6412129088       -3.8308866845        1.3401805658
 C       -11.5733788389       -1.7599992826       -6.6425455440
 C       -12.6351366733       -1.9671702417       -4.3900778404
 C       -10.0968103506       -6.3295658451      -10.0369730483
 C       -10.6182638794       -8.5154089364       -8.8480444957
 C        -7.3921684774       -9.3477425895       -3.5243847069
 C        -9.3119757833       -7.9537847547       -4.0069707891
 C        -1.6171359353       -7.7777630426       -4.2188165220
 C        -1.7719051511       -5.7231138177       -2.8354665833
 C        -3.4168993003       -1.7424807934       -6.9602667605
 C        -5.6074172473       -1.3328076291       -5.9316436626
 C        -4.3664132826       -1.8784625359      -13.4202485420
 C        -2.3701540978       -3.4668822924      -12.8205651894
 C         2.6563390813       -0.2451891650      -11.9408932192
 C         3.1331462678        1.9144044953      -12.8700731812
 C         7.0108213131       -0.9029630166      -18.0339012107
 C         7.5033637676       -1.3408838209      -15.4163443302
 C         6.0876227913        6.4401371487      -17.2743195558
 C         4.1955042830        6.0167123393      -15.7568859962
 C        -0.2809332192        2.5174175370      -19.0606444158
 C        -0.9591936946        4.7785585681      -19.9232085947
 C        -1.1264915725        5.3527890454      -12.6994837600
 C        -0.3227376255        7.7704828657      -13.1050599415
 H         1.8465933910        7.2016291154      -11.2967411521
 H         2.9262244364        5.8127866200      -11.4624950233
 H         1.3516189831        5.5852451549      -10.7188017617
 H        -2.4115794708        6.6863095543      -15.2713327979
 H        -2.0856816984        4.9141368262      -15.0177046091
 H        -1.1647068191        6.5541262039      -17.4040489917
 H        -2.5646946142        5.6182398314      -17.5302535589
 H         1.0442204391        6.4779964246      -19.2502538693
 H         2.0439011849        5.6111331680      -20.3038116477
 H         2.8143501922        7.0070403595      -17.7241926059
 H         3.5678284643        7.0677729079      -19.1926945823
 H         7.5456008036        3.8103407035      -16.5538793228
 H         6.8085355459        4.0028402679      -18.0683920538
 H         7.4897802785        1.8533992335      -18.2382562519
 H         5.8387985131        1.6103705217      -17.7423571856
 H         4.9491986637       -0.2961353711      -13.9436535686
 H         5.2215209471       -1.9167651996      -14.4485199703
 H         2.8511827020       -1.7789224068      -13.9988345472
 H         2.7936417795       -1.4635239860      -15.7829666742
 H        -0.8297273637        1.0888693418      -11.4771162323
 H         0.4217853791       -0.1995894295      -11.4101326022
 H        -0.7195239375       -1.4697372878      -13.0009344145
 H        -1.4689412300       -0.1265561418      -13.7590306611
 H        -5.9890507716       -2.9679808345      -10.7952994846
 H        -5.5115733191       -1.4681092006      -11.5214702282
 H        -6.2435120924       -0.4883182626       -9.3771519733
 H        -4.5109416833       -0.6953466515       -9.2186100481
 H        -3.4261184734       -4.5762245441       -7.8655146916
 H        -5.0841735890       -5.3340484152       -7.8042522230
 H        -2.9683044942       -6.6209460136       -7.0337872296
 H        -4.3405013780       -6.7157330004       -5.9472046099
 H        -5.0996710675       -5.2166102208       -3.6598417912
 H        -4.4471345960       -5.6436219224       -2.0453257397
 H        -6.6405536037       -5.9354934711       -1.5584781590
 H        -6.1469476041       -7.5097959962       -1.9670210691
 H        -9.0122233925       -9.0812307214       -6.7431851807
 H        -7.6856652977      -10.0787368269       -6.6985385631
 H        -8.0442567311       -9.1862382322       -9.0862199772
 H        -6.6425129672       -8.3201089809       -8.5178353399
 H       -12.6550848080       -6.6872738193       -7.2270325443
 H       -12.4062353630       -6.0099301570       -8.8180774824
 H       -13.7002992448       -4.3723216144       -7.5655882183
 H       -12.0853799987       -3.7249464320       -7.9889291304
 H        -9.2412850506       -4.4263320936       -3.6427982651
 H       -11.0923268524       -4.3880041644       -3.4884866680
 H       -10.5983768643       -1.9161074052       -2.7545460022
 H        -9.0443192885       -2.4716799032       -2.1871103080
 H       -10.3079276531       -7.2305282777        0.6783433001
 H       -11.4418345963       -7.1927602766       -0.6873272732
 H       -11.5843543004       -6.1736936990        0.7911390393
 H        -8.3163176468       -2.5791447253        0.4737603011
 H        -8.0525095841       -3.6120155743       -0.9705419202
 H        -7.9271491238       -4.2594100548        0.6834263423
 H       -10.0917534647       -4.2942315128        2.1876603103
 H       -11.7047000033       -4.0914370356        1.4349187644
 H       -10.5812362921       -2.7972827365        1.5790772201
 H       -11.1176350979       -0.8129967716       -6.3931752842
 H       -12.3860777612       -1.4496257332       -7.3525658611
 H       -10.8063278426       -2.1274943594       -7.3338097333
 H       -12.9296170524       -2.6867971801       -3.6490575598
 H       -13.6040475176       -1.7365172116       -4.8702100454
 H       -12.1800960055       -1.0545418523       -3.9647668287
 H        -9.7858513274       -5.2972214939       -9.8482315894
 H       -11.0834035093       -6.0942800541      -10.3984631041
 H        -9.5025313192       -6.8155580056      -10.7664208519
 H       -10.2816358769       -8.9685242237       -9.8144872149
 H       -11.6759495649       -8.5508349348       -8.7814825919
 H       -10.1191407439       -9.1419046756       -8.0835920594
 H        -6.2935369077       -9.4985480047       -3.4136024923
 H        -7.7520760225      -10.1938890426       -4.1703050274
 H        -7.8978722118       -9.4306110581       -2.5132989086
 H        -9.5551202102       -7.9023213020       -2.9394421803
 H        -9.7388592720       -8.8298407353       -4.4088195512
 H        -9.8334087958       -7.0427979072       -4.3738836296
 H        -1.5257687724       -8.3544162701       -3.3160769092
 H        -0.6305015535       -7.4637118977       -4.5533781250
 H        -1.9491544030       -8.3835985869       -5.0483584748
 H        -1.9070528611       -6.0736050469       -1.8013185081
 H        -2.1520005522       -4.7559298939       -2.8367950832
 H        -0.6992058136       -5.6419597558       -2.9617348496
 H        -3.1713724982       -1.2483660700       -6.0281778398
 H        -3.3177964623       -1.0180897360       -7.7262218409
 H        -2.6292092301       -2.4626352803       -7.1061703737
 H        -5.1208894988       -1.3868860779       -4.9623087354
 H        -6.6595452774       -1.5502607892       -5.8163116174
 H        -5.5227976169       -0.3006743880       -6.2072893808
 H        -5.3831444164       -2.3424014012      -13.5609743394
 H        -3.8705905905       -2.0450107670      -14.3783431618
 H        -4.5699318029       -0.8057598236      -13.3606952925
 H        -3.0658805212       -4.2931795884      -13.1093829141
 H        -1.6029843546       -3.5662206129      -12.0225789586
 H        -1.9785902936       -3.0911627327      -13.7956426869
 H         2.2890873767       -1.2572459987      -11.8762157004
 H         2.4996853556        0.1526992604      -10.8914598415
 H         3.6752920335       -0.2424171557      -12.1469754136
 H         4.1407662129        1.5276846037      -12.8541367022
 H         2.9098732858        2.4142174523      -11.8811276885
 H         3.1237906046        2.6336632723      -13.6888371153
 H         6.1770634956       -0.3272258346      -18.5392476331
 H         6.9136136995       -1.9440255057      -18.2083647505
 H         7.9375262056       -0.4761238660      -18.4727327502
 H         8.5609061321       -1.2845775178      -15.6458526090
 H         7.1632486105       -2.3599082167      -15.5668741137
 H         7.3463566715       -0.9937270573      -14.4747121988
 H         7.0831013837        6.0006496157      -17.1484795722
 H         5.8756282742        7.4303053192      -16.7976057000
 H         6.1449224553        6.6267484746      -18.3325160373
 H         3.3067904471        5.3421019917      -15.4610157752
 H         3.7442472028        7.0148359400      -15.9230956257
 H         4.9038997822        6.0295514938      -14.8689068844
 H        -1.1332179294        2.2771775890      -19.6242896308
 H        -0.1537396891        1.9763889126      -18.1056579774
 H         0.5678607196        2.2286532510      -19.7061480653
 H        -0.9386917601        4.2831608860      -20.8819897201
 H        -0.5187130550        5.7057830958      -20.0866549783
 H        -1.9925008393        4.8126446295      -19.6035799716
 H        -0.9549978915        5.4932268844      -11.5983512959
 H        -0.9097385555        4.3162561161      -13.0688966329
 H        -2.0882046591        5.7111894372      -12.8056877892
 H         0.6449931969        8.3296582517      -13.3595013952
 H        -0.6058133861        7.9481687062      -12.0334001646
 H        -1.0071879819        8.2284503737      -13.8610607340
 Na        1.6364677843        3.3460836428      -15.3798501326
 Na       -7.5722029834       -4.8226251004       -6.3467769174
