232

 C         1.7646268201        6.2490756191      -11.6490141153
 C         1.1273489324        5.6017497369      -12.9185857518
 O         1.6882234023        4.8392559679      -13.6312693492
 C        -0.2968542702        6.1165553092      -13.3129444675
 C        -0.3603298820        5.8806933495      -14.9076521057
 O         0.6915588836        6.0306498663      -15.5334200992
 C        -1.7179475681        5.7263896327      -15.5477428574
 C        -1.6744715706        5.4719847166      -17.0403488789
 C        -0.9649030302        4.1879123405      -17.3212841759
 O        -0.7371152091        3.3464537281      -16.4676445464
 C        -0.3339274122        4.0108486829      -18.7315947554
 C         1.2000675984        4.4815644516      -18.5983758492
 O         1.9806346697        3.9327128728      -17.7728557631
 C         1.8158313858        5.4764841315      -19.4619939334
 C         2.8862321840        6.2275020164      -18.6400317145
 C         4.1419334994        5.2778612559      -18.3207444776
 O         4.5461028705        4.4775396264      -19.0815731251
 C         5.0063429334        5.4414597125      -16.9260466906
 C         5.2704475759        3.9927544852      -16.6498843222
 O         4.3087130146        3.2352150344      -16.3584472043
 C         6.6307316982        3.3583684684      -16.7129243797
 C         6.6628667256        1.9580948971      -17.4417899257
 C         7.0383112882        0.9434754150      -16.3988241203
 O         7.5949621856        1.3800588320      -15.4250575500
 C         6.7876556990       -0.5350158883      -16.4816847120
 C         5.1162338700       -0.7200307023      -16.2199207266
 O         4.3807536459       -0.6983110130      -17.1939954079
 C         4.6673203059       -1.0906343219      -14.7905891100
 C         3.1352055294       -1.1959116402      -14.7854242940
 C         2.4247160090        0.2180714727      -14.5051735102
 O         1.9741622175        0.8747124826      -15.3761468733
 C         2.2164110614        0.6908107107      -12.9283141524
 C         0.7898065077        1.1799050663      -12.8571951770
 O         0.3872474510        2.1274890717      -13.4856011596
 C        -0.2618078450        0.5470084762      -11.9382835397
 C        -1.0861679263       -0.5231824341      -12.7178795270
 C        -2.4486080976       -0.8793653976      -11.9728322557
 O        -2.8812156035       -0.1027683642      -11.1388692372
 C        -3.1571403581       -2.2287439770      -12.2376748989
 C        -4.0492320067       -2.5975114292      -10.9432299225
 O        -3.5827434760       -3.4524832859      -10.2094311348
 C        -5.4320190401       -2.0593489191      -10.6564828098
 C        -5.5269976731       -1.4500038969       -9.2585009603
 C        -5.6974480231       -2.4188783933       -8.0497463316
 O        -6.6428160762       -3.1812425016       -7.9628358071
 C        -4.7519855603       -2.4077868773       -6.7233186160
 C        -4.8053454676       -3.8470744497       -6.0982493788
 O        -5.1646069028       -3.9706125527       -4.9309158100
 C        -4.3343241979       -4.9492537278       -7.0963740353
 C        -3.5030055261       -6.0886336353       -6.4012350775
 C        -2.5668080642       -5.6771661885       -5.2283662125
 O        -2.0055300904       -4.5812772246       -5.3601032278
 C        -2.5040617074       -6.5599030062       -3.9526786264
 C        -3.9155974444       -7.0421103756       -3.3290308106
 O        -4.2078754452       -8.2263621105       -3.2773318605
 C        -4.7896735313       -6.0688223259       -2.4853642714
 C        -6.1557973539       -6.7454051258       -2.2852538943
 C        -7.1485964435       -6.6272423891       -3.4651450057
 O        -7.2619319273       -5.6024328071       -4.0845026099
 C        -7.7272068042       -7.9110108922       -4.0474244149
 C        -7.3177727874       -7.9975995712       -5.6658939375
 O        -6.4512913289       -7.2000933385       -5.9671975452
 C        -8.0061185618       -8.9032165842       -6.6468194576
 C        -7.8001066677       -8.3726329295       -8.0827571640
 C        -8.3627498816       -7.0165973060       -8.5126258516
 O        -7.6047997801       -6.0640688159       -8.7071671054
 C        -9.9309344981       -6.8127561788       -8.8402371892
 C       -10.6599834968       -6.0685276710       -7.6805510915
 O       -10.0743307797       -5.7127592437       -6.7051148439
 C       -12.2337445536       -5.9340539677       -7.7218595268
 C       -12.6138595778       -4.4363653702       -7.5693974587
 C       -12.5906870503       -3.9859356723       -6.0517609328
 O       -13.1019652258       -4.7102804598       -5.1950137706
 C       -11.8727054951       -2.6856143745       -5.6135441241
 C       -10.4154088544       -3.1434559827       -5.2421207850
 O        -9.5292510323       -3.0385221473       -6.0427419808
 C       -10.0953524061       -3.7334101318       -3.7414498357
 C       -10.0932617346       -2.6886669003       -2.5381010244
 C       -10.7047487270       -3.4030001352       -1.2434194223
 O       -11.8621610094       -3.4973970863       -1.0530844779
 C        -9.7251950469       -4.1473144382       -0.0671914174
 C        -9.8361882401       -5.5942385479       -0.5074818127
 O        -9.2099397962       -6.0400503108       -1.4701812772
 C       -10.9969037423       -6.4349646803        0.0097382033
 C        -8.3065633564       -3.5573319177       -0.0419680627
 C       -10.4868152601       -3.8427177026        1.2359963590
 C       -11.7864708037       -1.6139907533       -6.6644848270
 C       -12.7257708333       -2.0814804723       -4.3497032893
 C       -10.1773785863       -6.0307013274      -10.1877073044
 C       -10.7032983033       -8.1931548811       -9.0935079346
 C        -7.2290426312       -9.2863396585       -3.5210240595
 C        -9.2968832668       -7.7441019911       -4.0328212913
 C        -1.7733577017       -7.8989750263       -4.4972626704
 C        -1.7692108295       -5.7580451031       -2.8202585115
 C        -3.3346033541       -1.9869285114       -7.0789829602
 C        -5.4218745785       -1.4085686095       -5.7289529619
 C        -3.8967921371       -1.8155703243      -13.5252075266
 C        -2.2340718854       -3.4209877745      -12.6745558575
 C         2.4589829621       -0.6067892101      -12.1088144920
 C         3.1822193710        1.8842540280      -12.6610778846
 C         7.0881450675       -1.0743182999      -17.8572367835
 C         7.6231070490       -1.3497074022      -15.4504616299
 C         6.2364360729        6.3440234446      -17.2398088668
 C         4.1654312944        6.0145346533      -15.7863923601
 C        -0.3583357930        2.4638075112      -19.0400309727
 C        -1.1067219330        4.8038565970      -19.8001827268
 C        -1.4848174659        5.5411546671      -12.5304650000
 C        -0.2910033732        7.6380455399      -13.0250942275
 H         2.4645716283        7.0072525039      -12.0363055405
 H         2.3092058406        5.6070159877      -10.9364723999
 H         1.0167454490        6.7991044943      -11.0702930782
 H        -2.3353558137        6.6335529977      -15.3886684965
 H        -2.2034801769        4.8961104633      -15.0677548258
 H        -1.1327171039        6.2566706247      -17.6802198045
 H        -2.6744985934        5.4169081462      -17.4487968794
 H         1.1309861004        6.1031928008      -20.0093066029
 H         2.2618774702        4.8870088352      -20.2807719807
 H         2.4987156622        6.6832467881      -17.6967795250
 H         3.3030544850        7.1119194483      -19.0992976512
 H         7.1272366116        3.1809037242      -15.7443606251
 H         7.3380502951        3.9672351386      -17.2354066560
 H         7.4850630151        1.9462172026      -18.0705214746
 H         5.8632088627        1.6068809931      -18.1044350775
 H         5.1334432978       -0.4881958177      -14.0432570150
 H         5.1541748548       -1.9995220681      -14.6397495351
 H         2.7141801676       -2.0249393226      -14.1499997588
 H         2.9224823989       -1.3307859832      -15.8310514514
 H        -1.0090746533        1.3016079761      -11.7478672089
 H         0.1676715188       -0.0067915701      -11.0661310584
 H        -0.3821853349       -1.4168397865      -12.7861836841
 H        -1.2791725268       -0.1538883982      -13.7174770695
 H        -6.0818276176       -2.9107646976      -10.6676311341
 H        -5.7176553915       -1.3030550600      -11.4354624302
 H        -6.4497832394       -1.0132620869       -9.3171034126
 H        -5.0037835835       -0.5704966056       -9.0867461387
 H        -3.7580332810       -4.4443741447       -7.8725765076
 H        -5.2178584978       -5.3752783866       -7.5686950677
 H        -2.8539300528       -6.5219525741       -7.1566494894
 H        -4.1754815221       -6.9439123834       -6.0943774482
 H        -4.9900794303       -5.1044882272       -2.9269159255
 H        -4.3025217101       -5.9431610182       -1.4092862914
 H        -6.5852044413       -6.2265369724       -1.3351601242
 H        -6.0670714108       -7.8435298522       -2.0340660985
 H        -9.1247722514       -8.9277603211       -6.4842153231
 H        -7.7078822989       -9.9178456499       -6.8262450104
 H        -8.0666223720       -9.1539672848       -8.7788514068
 H        -6.7079190040       -8.2863099799       -8.2851088866
 H       -12.5735807545       -6.5005305969       -6.8470661664
 H       -12.6970445354       -6.3739861541       -8.6338837961
 H       -13.6894286453       -4.3051669795       -7.8465288449
 H       -12.0082011910       -3.8427098686       -8.2552019755
 H        -9.1170451981       -4.1925580511       -3.7861346928
 H       -10.9020318972       -4.5313992398       -3.7470675730
 H       -10.7063851338       -1.8176087183       -2.8695974419
 H        -9.1286858604       -2.3924830303       -2.2531663367
 H       -11.2787134814       -6.3682677354        1.1166641189
 H       -10.7837528152       -7.4387181438       -0.3041630673
 H       -11.9540891416       -6.1137890245       -0.4769776766
 H        -8.3755370786       -2.4945031460        0.0034859730
 H        -7.6761428590       -3.7319957362       -0.8908193915
 H        -7.8485509665       -3.8092193228        0.9670483771
 H       -10.2213871042       -4.3369397151        2.1370328022
 H       -11.5112151914       -3.9664573686        1.0147061646
 H       -10.4379265988       -2.7750649867        1.5531218757
 H       -11.1993500964       -0.6981136122       -6.5394506264
 H       -12.7489111748       -1.3684822747       -7.0963576683
 H       -11.2179298595       -1.9586648534       -7.5542531245
 H       -12.8390142312       -2.6337822920       -3.4160694026
 H       -13.7597201769       -1.8983494166       -4.6154567984
 H       -12.1322440015       -1.1883709553       -4.1604224428
 H        -9.6670300471       -5.0570523569      -10.2035311965
 H       -11.1981035486       -5.6472564050      -10.3281596829
 H        -9.8522351649       -6.6985409045      -11.0535169279
 H       -10.1328066956       -8.6377305467       -9.8199830966
 H       -11.6355256696       -7.8967960774       -9.5484983817
 H       -10.7314943208       -8.8615224704       -8.2712211616
 H        -6.3628790456       -9.4755155575       -4.0807690718
 H        -7.9651418507      -10.1030644926       -3.6413377850
 H        -6.9322874465       -9.3065812380       -2.5126133103
 H        -9.7296024262       -7.9083925224       -3.0410470645
 H        -9.8458250390       -8.4651592613       -4.6701886571
 H        -9.5709896289       -6.7364332920       -4.2550938435
 H        -1.6581171417       -8.6635409904       -3.7496641085
 H        -0.7299826935       -7.6343080742       -4.8147722788
 H        -2.3896428602       -8.2753920044       -5.3176755177
 H        -1.6544948675       -6.2885527725       -1.8896449758
 H        -2.3060899636       -4.7959112902       -2.5190820542
 H        -0.7770545320       -5.4514209093       -3.1242177357
 H        -2.8613776624       -1.1987898019       -6.5444642335
 H        -3.1073959738       -1.8234666752       -8.1572165519
 H        -2.6780196680       -2.8272824051       -6.8814859045
 H        -5.0882832432       -1.4776658127       -4.6993965703
 H        -6.5276526762       -1.5583398506       -5.6745974713
 H        -5.3222064757       -0.3541585142       -6.0385104362
 H        -4.0580546553       -2.7095256226      -14.0549292071
 H        -3.3177412990       -1.1159171809      -14.1661364475
 H        -4.8680034266       -1.3216266310      -13.4746191032
 H        -2.8043154455       -4.2760002223      -12.7974378868
 H        -1.4798539575       -3.4005207328      -11.9517170841
 H        -1.8575587297       -3.1174697604      -13.6176551760
 H         1.6433672468       -1.3378017659      -12.2177922376
 H         2.3685385225       -0.3521541587      -11.1073110693
 H         3.4894002806       -1.0390749969      -12.2758633387
 H         4.1680817680        1.5300476778      -12.9816119132
 H         3.1920798154        2.0679270048      -11.6515207543
 H         2.9296275719        2.7945478392      -13.1706676488
 H         6.8270535082       -0.4278233198      -18.6165628245
 H         6.6467585975       -2.1147030911      -17.9691815235
 H         8.1355902521       -1.1555333100      -17.8911295530
 H         8.6344783075       -1.2171662934      -15.8132442097
 H         7.3704031465       -2.4092605558      -15.3931801496
 H         7.4020540687       -0.7530975990      -14.4420245120
 H         7.0883961331        5.7695090301      -17.5476812426
 H         6.3776461824        6.8776695965      -16.3617907110
 H         6.2418765039        6.9931322278      -18.1190448607
 H         3.1889723641        5.6016038801      -15.8270848530
 H         4.1323310745        7.0606706911      -15.7025285633
 H         4.5668169890        5.7006371928      -14.8744872697
 H        -1.0530339806        2.2561275357      -19.9076470468
 H        -0.5673366872        1.9746149060      -18.1276485807
 H         0.5839764140        2.0137344234      -19.4782460706
 H        -0.4916321893        4.8447123477      -20.6811792825
 H        -1.2311989123        5.8808716870      -19.5075872481
 H        -2.0069278330        4.2811785204      -20.0489462933
 H        -1.4048246314        5.7695376760      -11.5059243111
 H        -1.5764853322        4.5233686409      -12.7086253213
 H        -2.3878702381        6.1759885601      -12.8101066810
 H         0.3627193228        8.1779578628      -13.6089847698
 H        -0.0940816567        7.7707325158      -11.9596512289
 H        -1.2955890945        8.0792693362      -13.2328269956
 Na        1.5767736193        3.2471344549      -15.5956319383
 Na       -7.8531281826       -4.5632274520       -6.3699754127
