232

 C       -22.3583876653       -6.6177926924       -1.6866268026
 C       -21.6589852030       -5.4472566526       -2.3850257822
 O       -20.5809695090       -5.0766590023       -1.9525747515
 C       -22.3395864486       -4.6514667384       -3.5523898514
 C       -21.1991528096       -4.2738054791       -4.6543064333
 O       -20.5597389693       -3.1841748900       -4.6190896908
 C       -21.1601754930       -5.0961419038       -5.9646693512
 C       -19.6431724438       -5.6680747939       -6.3169579263
 C       -18.5996585752       -5.0517902456       -5.3745244892
 O       -18.6913901582       -5.2333410537       -4.1787484997
 C       -17.5024272845       -4.1448040737       -5.8431741987
 C       -17.0076639405       -3.2296770904       -4.6456544406
 O       -17.4334635153       -2.0863858537       -4.6039719200
 C       -15.9442303140       -3.7779299831       -3.6822118139
 C       -15.4350818823       -2.7349176708       -2.6409566101
 C       -16.1034704137       -3.0163432634       -1.2953461247
 O       -17.2884093093       -3.2060624297       -1.1995661276
 C       -15.1483685065       -3.0089408986       -0.0027754156
 C       -13.7299255610       -3.6439477699       -0.1484905219
 O       -12.7416256062       -3.0907018238        0.2102867524
 C       -13.7431171687       -5.1655497849       -0.4482088321
 C       -12.4297148500       -5.9038370007       -0.7696395339
 C       -12.2284051381       -6.1188258122       -2.2414213044
 O       -13.0045697987       -5.6529729710       -3.0677633153
 C       -10.9877792967       -6.8865557319       -2.6379050213
 C        -9.6706090629       -6.0700270779       -2.3206745428
 O        -9.6584405340       -4.9924225349       -1.7605315137
 C        -8.2314253805       -6.8367334633       -2.6061134836
 C        -7.0825104288       -5.8331996463       -2.4800258410
 C        -7.0333038396       -4.6582498027       -3.5220066588
 O        -7.9249225584       -4.6990351895       -4.3838885202
 C        -6.0466019494       -3.4087435243       -3.4886191683
 C        -4.4805893934       -3.5978249728       -3.8064483215
 O        -3.6574096092       -3.4884420065       -2.9177683481
 C        -4.0688421879       -3.7891561792       -5.2712292473
 C        -2.6395156210       -4.1626604003       -5.4578997763
 C        -1.5865006596       -3.1488173302       -4.9510230293
 O        -1.8586093332       -1.9739236574       -4.8923278216
 C        -0.1310608967       -3.7717058217       -4.7536132935
 C         0.2115605067       -4.3563654221       -6.0834777003
 O        -0.3927702981       -5.3780472485       -6.3833193019
 C         1.0549334581       -3.6972503710       -7.1091630480
 C         0.2689890319       -3.4487333411       -8.3949028489
 C         1.2206543566       -3.0766609823       -9.5673913997
 O         2.3984352880       -2.7203423921       -9.3910714644
 C         0.6688989997       -3.0704633255      -11.0574845728
 C         1.4592248563       -2.0371202087      -11.9457525796
 O         0.8002431534       -1.1212559494      -12.4940774855
 C         2.9475598446       -2.2626889585      -12.2067938436
 C         3.6936583990       -0.9583307098      -12.4859988913
 C         5.1803447666       -1.0635326765      -12.9167463516
 O         5.9565552712       -0.6929184932      -12.0652465863
 C         5.7102309043       -1.9897427461      -14.1576218094
 C         6.8899323228       -1.1071159802      -14.8567250657
 O         6.6712985039       -0.3739930095      -15.8197584145
 C         8.2502097264       -1.3734087766      -14.2779630410
 C         9.3988426397       -0.4872700289      -14.8780185988
 C         8.8364729349        0.7340450149      -15.5103542896
 O         9.1102461741        0.9504205006      -16.6956085324
 C         8.3425263937        2.0246887408      -14.4429244399
 C         7.0844445856        2.5795862162      -15.1349960067
 O         6.0309025747        2.0789507913      -14.8221397485
 C         7.2340762452        3.6305205636      -16.2803876115
 C         5.8891831228        4.1804830356      -16.6825179654
 C         5.0042705427        3.2179940401      -17.4515369765
 O         5.5172272593        2.1276815514      -17.8558680240
 C         3.6304308192        3.7097595863      -17.8194763646
 C         3.9139116394        4.9630821300      -18.8643170085
 O         3.8283422189        6.0736732071      -18.4100676268
 C         4.2509631781        4.5602355571      -20.3023405792
 C         5.3087421033        5.5418146361      -20.7263709552
 C         5.8875313348        5.3454506015      -22.2315881449
 O         5.0853854454        4.9973813618      -23.0890846069
 C         7.4343303937        5.6066268900      -22.3824552339
 C         8.0129427876        4.2189833159      -21.8822463222
 O         7.7359207908        3.1709902426      -22.4809797797
 C         9.0870304374        4.3665439756      -20.7548512758
 C         9.9373057705        3.0792655207      -20.7279288714
 C         9.1354981866        1.8836949403      -20.1774402070
 O         8.5803355729        1.9843708961      -19.1284444364
 C         9.3139500976        0.4325119404      -20.8777167158
 C         8.0466132251       -0.3000617949      -20.9837434330
 O         7.5096854729       -0.8080087437      -19.9449446551
 C         7.5904419093       -0.7603738274      -22.3859541810
 C        10.2280327521        0.4972616070      -22.0954103362
 C        10.2390210497       -0.3335960953      -19.7755952677
 C         7.5727835508        5.5236204484      -23.9188285483
 C         8.0617823656        6.9285080359      -21.9022097798
 C         2.7005239419        2.6638280457      -18.3741729527
 C         2.9076462309        4.2603822389      -16.5248335165
 C         8.0815100682        1.6279741216      -13.0010638325
 C         9.5806334972        3.0838192741      -14.3738687612
 C         6.2460708403       -3.3127960419      -13.5210118286
 C         4.5901558220       -2.2309698747      -15.2307470935
 C         0.8260720626       -4.4970099626      -11.6321893451
 C        -0.7869125860       -2.5368759048      -11.1198475878
 C         0.8111120411       -2.5728581518       -4.3200648268
 C        -0.3895119522       -4.7918354573       -3.5386679779
 C        -6.5963309259       -2.4616747567       -4.4925567116
 C        -6.0816986420       -2.9303401659       -1.9842471281
 C       -10.8729914260       -8.2207470439       -1.7538597919
 C       -11.1201565802       -7.3926397475       -4.0998848132
 C       -15.0040196971       -1.4946264824        0.4162047360
 C       -15.9085548130       -3.8030359360        1.1276380668
 C       -16.4691600826       -5.2205237604       -6.5483966623
 C       -18.1168053106       -3.3107464846       -7.0460974879
 C       -23.5300607477       -5.4877250366       -4.2702512530
 C       -22.9196590225       -3.2569220739       -2.9827746861
 H       -23.2026947030       -6.1463448019       -1.1009122103
 H       -21.7927321391       -7.0298284088       -0.9225355027
 H       -22.8178098354       -7.3406439354       -2.3238260666
 H       -21.4642501422       -4.4625103055       -6.7837837173
 H       -21.7332042448       -5.9389337343       -6.0470065731
 H       -19.4037723274       -5.5965890311       -7.4049210542
 H       -19.8763254236       -6.7063477054       -6.0609192950
 H       -15.1297137994       -4.1807052998       -4.2710085300
 H       -16.3882194344       -4.6218847652       -3.2200695400
 H       -15.5852891962       -1.6471722290       -2.9563462450
 H       -14.4431646112       -2.9849574357       -2.5494866052
 H       -14.5011701144       -5.3122047849       -1.2177174810
 H       -14.0613848327       -5.6808927197        0.4374543948
 H       -12.3897062842       -6.9341614506       -0.2702541144
 H       -11.5564198547       -5.4168506612       -0.3292623090
 H        -8.3152267140       -7.2699454893       -3.5675898285
 H        -8.1509702696       -7.5936460769       -1.8944435805
 H        -6.1347066698       -6.4204581043       -2.5607636653
 H        -7.0929852047       -5.3939644694       -1.4210137278
 H        -4.1816521061       -2.8230346215       -5.7479215396
 H        -4.7209647936       -4.5100956202       -5.7933332909
 H        -2.5219596824       -4.1685943801       -6.4793285246
 H        -2.4893010642       -5.1844825727       -5.1276745350
 H         2.0192334249       -4.2555590045       -7.2734445282
 H         1.2735769369       -2.7561421194       -6.6877359246
 H        -0.2936429814       -2.5413335085       -8.1992894088
 H        -0.4607111644       -4.2873604525       -8.5255435935
 H         3.1009931826       -2.9407353355      -12.9634033741
 H         3.3346685298       -2.6041955944      -11.2219735675
 H         3.5718905807       -0.4167549473      -11.5272755876
 H         3.0927383281       -0.4125898068      -13.2405240769
 H         8.5115994750       -2.4164502811      -14.4908087237
 H         8.1033856504       -1.3971574029      -13.1928890880
 H         9.8111616935       -1.0825849566      -15.7264584073
 H        10.3121945276       -0.2837621768      -14.2103336155
 H         7.5798168467        3.0662310938      -17.1330961259
 H         7.9051746213        4.4131785499      -16.2103554135
 H         6.0207686957        5.0016550105      -17.3043377849
 H         5.3563633429        4.5320014453      -15.8681971511
 H         3.3531916475        4.7720224200      -20.9359894620
 H         4.6370629000        3.6024754037      -20.2307664924
 H         6.1246819680        5.5968707304      -20.0440961697
 H         5.0197015201        6.5778122302      -20.6497373421
 H         8.6996070690        4.5739815318      -19.7838655194
 H         9.7522842052        5.1766369779      -21.0807338925
 H        10.7802141394        3.1191009586      -20.0257579724
 H        10.3630309805        2.8010231129      -21.7339215966
 H         8.0225041333       -1.7250223050      -22.6790999405
 H         7.8742541996       -0.0273077023      -23.1808083094
 H         6.5532382436       -0.6637974926      -22.5652294385
 H        10.2840617599       -0.5460355757      -22.5216114098
 H        11.1497006137        1.0072173425      -21.7953939261
 H         9.9465207370        1.1724037804      -22.9023838649
 H        11.1502840838        0.2322361040      -19.4961453575
 H        10.6604329149       -1.3051091649      -20.2210455821
 H         9.7181380399       -0.6187730698      -18.8315011015
 H         7.2173583651        4.5244290854      -24.2758507374
 H         8.6032456532        5.5196973646      -24.1877494859
 H         7.0229145299        6.3194252852      -24.5150288826
 H         9.1862937019        7.0326878085      -21.8280499302
 H         7.6547448614        6.8998282393      -20.8774829679
 H         7.8332846216        7.8901857686      -22.4475481173
 H         1.9660319527        2.1980306279      -17.7195246440
 H         3.2145949010        1.7430393561      -18.6970612505
 H         2.2112698608        3.0438764035      -19.2740777236
 H         3.4314444624        5.2046403217      -16.2693842224
 H         2.8592432163        3.5180004180      -15.7190296059
 H         1.9375809727        4.6321538964      -16.7356218847
 H         7.7369888070        2.5461581680      -12.4886361559
 H         9.0013914225        1.3449788559      -12.4671209022
 H         7.2491023667        0.8750943331      -12.8645226884
 H        10.4913116733        2.6033278489      -14.0319090484
 H         9.3895423342        3.9249627254      -13.6044052831
 H         9.8833536002        3.3246434456      -15.3550269402
 H         5.6245700020       -3.5682442316      -12.6578247412
 H         7.2032163248       -3.0774450475      -13.0561939979
 H         6.2891048501       -4.1118598641      -14.2042077671
 H         3.7275979599       -2.4703162609      -14.7424805559
 H         4.8525803139       -3.0094954345      -15.9320706588
 H         4.3847014182       -1.3251575257      -15.8108592201
 H        -0.1364775779       -5.0255258957      -11.6605857860
 H         1.4248293847       -5.1432349093      -10.9991394469
 H         1.4136673822       -4.5685044764      -12.5894352633
 H        -0.7783690142       -1.4709377485      -10.8411568724
 H        -1.5144769182       -3.1224544592      -10.6103846472
 H        -1.1502640938       -2.6703315579      -12.1538663271
 H         0.5865765359       -2.3075042157       -3.2491016475
 H         0.4020623108       -1.7066573900       -4.8257743253
 H         1.8272092519       -2.7475405273       -4.5458498194
 H        -0.6616081777       -5.7313979072       -3.8949823287
 H        -1.1089020727       -4.3562424048       -2.7937456859
 H         0.5473861761       -4.8440798278       -3.0120843655
 H        -6.8922792691       -3.1103371576       -5.2904504944
 H        -5.9883555374       -1.6552845233       -4.8613866654
 H        -7.5624996258       -1.8995816132       -4.2140153249
 H        -7.1817156354       -2.9057023346       -1.6513073194
 H        -5.6908306306       -1.9037014908       -1.9582441753
 H        -5.4837778908       -3.5414087424       -1.3371038059
 H       -11.7090782423       -8.8328656304       -1.6142155440
 H       -10.4903924882       -7.9618411695       -0.7763473546
 H        -9.9502435052       -8.7450738168       -2.1879788321
 H       -11.7126509449       -8.3653622450       -4.0380479873
 H       -10.1528545753       -7.5684485940       -4.5504730029
 H       -11.6685313865       -6.7706857577       -4.7452027532
 H       -15.0647674514       -0.8681430626       -0.4513838352
 H       -14.0967820522       -1.2448175489        0.7942932491
 H       -15.7253007884       -1.1860769677        1.1402064525
 H       -15.3272077818       -3.7911279384        2.0139295751
 H       -15.9983169453       -4.8047848846        0.7540607650
 H       -16.8306872710       -3.3451329203        1.4361123776
 H       -16.7278062764       -6.1749456883       -6.2321262558
 H       -15.4075837567       -5.1533782815       -6.1464930083
 H       -16.4566956197       -5.0614453268       -7.6397917294
 H       -19.0785334314       -2.9974075059       -6.9315354941
 H       -18.2908102050       -3.9177601069       -8.0211915705
 H       -17.4094978127       -2.4982483867       -7.3410482795
 H       -23.2343267315       -6.4011087277       -4.7046931901
 H       -23.9882028102       -4.9062940039       -5.0416776075
 H       -24.2762126444       -5.6867600611       -3.4453825797
 H       -22.6250711916       -2.5224472001       -3.7061183696
 H       -22.5113523640       -3.1131031423       -1.9504651827
 H       -24.0755332040       -3.2781846888       -3.0237822126
 Na      -18.9717646175       -3.3433930315       -2.8183298474
 Na        6.9070228931        0.4641089903      -18.0528923832
