232

 C         1.7987617111        6.1272404047      -11.5288125927
 C         1.1838542157        5.6533664947      -12.8364371567
 O         1.6108798615        4.6747531659      -13.5056218995
 C        -0.2807375007        6.2154246962      -13.3393179758
 C        -0.5388296317        5.7945814602      -14.8088780522
 O         0.3633276470        5.6931823238      -15.6186389876
 C        -1.9690440047        5.6248627784      -15.4441440921
 C        -1.8031216971        5.3702836658      -17.0335211485
 C        -0.9247545157        4.1002947656      -17.3273790809
 O        -0.8340343501        3.2614718842      -16.4584090204
 C        -0.3258626793        3.9501843948      -18.7808745191
 C         1.1330188447        4.4063806105      -18.5570780063
 O         1.8158522204        3.9057670849      -17.7373599054
 C         1.8943237881        5.3517659242      -19.5555926446
 C         2.8830964749        6.2907437636      -18.8600237667
 C         4.1892789977        5.5042284319      -18.5639333028
 O         4.8293072993        4.9312365076      -19.4484509409
 C         4.7720730522        5.4397859471      -17.0792429158
 C         5.0538083265        3.9527006276      -16.6101162037
 O         4.2078470230        3.2989086013      -16.0991094965
 C         6.4096045274        3.3035529534      -16.8558520906
 C         6.4833756389        1.7660142734      -17.1548331432
 C         7.1276877443        0.7991443345      -16.2183847455
 O         7.8884022414        1.1851573205      -15.3531621822
 C         6.7621040412       -0.6915269699      -16.3421506186
 C         5.2231915908       -0.8842418982      -16.3339111961
 O         4.4846515661       -0.7277487475      -17.2613715977
 C         4.6305955079       -1.1505428836      -14.8600313568
 C         3.0439492658       -1.2219447262      -14.9280172900
 C         2.3900774534        0.1326637031      -14.4937048907
 O         2.0365543164        0.9496626469      -15.3948469716
 C         2.1839256502        0.5185332447      -12.9330727458
 C         0.7968644990        1.2094678067      -12.7743002778
 O         0.5826840866        2.2893332231      -13.3410928835
 C        -0.3274134513        0.7655495765      -11.8561027506
 C        -1.0020817788       -0.5368347411      -12.4212383274
 C        -2.4092285342       -0.7482612375      -11.7982191783
 O        -2.9526438990        0.0372456927      -11.0932523758
 C        -3.1869514133       -2.1463854608      -12.0368306392
 C        -4.0498843444       -2.5499321851      -10.9414293410
 O        -3.6188960068       -3.4325924173      -10.2175761344
 C        -5.4116023194       -1.9254542764      -10.5736021565
 C        -5.5073062839       -1.5483313639       -9.0299416834
 C        -5.6901894406       -2.6682986257       -7.9925908151
 O        -6.6473379718       -3.4347878819       -8.0767403153
 C        -4.7433963463       -2.5393869494       -6.7328808384
 C        -4.7500303412       -3.9421678379       -6.0225841265
 O        -4.9636950929       -4.0739669147       -4.8203070480
 C        -4.3556306841       -5.0739054846       -7.0093564911
 C        -3.6922133702       -6.1811657876       -6.2673525183
 C        -2.7819534579       -5.6656182932       -5.1394667102
 O        -2.1281810339       -4.6393472711       -5.2481961907
 C        -2.5071815444       -6.6225786841       -3.8600281531
 C        -3.8755003334       -7.0938359934       -3.3418295730
 O        -4.2879786774       -8.2289025991       -3.5134166159
 C        -4.6410146948       -6.1368496353       -2.4726877337
 C        -6.1396701322       -6.5996056901       -2.1780441527
 C        -6.9548382150       -6.5788594046       -3.5156743943
 O        -7.0317664201       -5.4357070110       -3.9796297259
 C        -7.6874723830       -7.7119308419       -4.2181220694
 C        -7.3409207486       -7.6582928260       -5.7321240733
 O        -6.5747033266       -6.8980702003       -6.3028771800
 C        -8.2920570978       -8.5133424210       -6.6434142913
 C        -7.9824079732       -8.3025640107       -8.2049017227
 C        -8.4255587475       -6.8750213129       -8.5626730407
 O        -7.6591075487       -5.9704859800       -8.5857869713
 C        -9.9342745688       -6.7182941876       -8.9098507376
 C       -10.6399946696       -6.0491984918       -7.6734135176
 O       -10.0984366028       -5.6067581961       -6.6389891301
 C       -12.1295018008       -5.8554075252       -7.7565186072
 C       -12.4755428651       -4.3769893166       -7.6353504600
 C       -12.5829909318       -3.9982934239       -6.1700792959
 O       -13.2121693837       -4.7154952074       -5.4228069982
 C       -12.0216077625       -2.6105701290       -5.6200616923
 C       -10.4766001808       -2.9988964527       -5.2576550223
 O        -9.5323628731       -2.8861336936       -6.0386892681
 C       -10.3192255773       -3.7284076426       -3.8578295281
 C        -9.8838564971       -2.8060545842       -2.7147160086
 C       -10.6006235624       -3.3119898960       -1.3954431044
 O       -11.8051671937       -3.4355954566       -1.2842670464
 C        -9.7058795083       -4.0805684127       -0.2559523030
 C        -9.8183648441       -5.5413411451       -0.5813493586
 O        -8.8788069568       -6.0590585292       -1.1501903587
 C       -10.9507144651       -6.4204662751       -0.1643703568
 C        -8.2018840773       -3.7043159416       -0.3916607666
 C       -10.1337870405       -3.7365022776        1.1673067506
 C       -12.0867597930       -1.5320112062       -6.7529069144
 C       -12.8952301368       -2.1759171243       -4.3329647914
 C        -9.8654306951       -5.6264346822      -10.0520836827
 C       -10.6811826121       -8.0665205722       -9.2564497483
 C        -7.3069705471       -9.1202233211       -3.6065784979
 C        -9.1779539018       -7.6538448688       -3.8710470607
 C        -1.7804181811       -7.7757958165       -4.4907857584
 C        -1.4863201452       -5.9097171093       -2.8668203562
 C        -3.2810811752       -2.2340528114       -7.1659902973
 C        -5.1761337327       -1.4066132810       -5.7417671400
 C        -3.9802400344       -2.0171743648      -13.3981466137
 C        -2.0625272308       -3.2509014184      -12.2451841503
 C         2.3447271957       -0.6190513009      -11.9000963246
 C         3.3197887650        1.5219721503      -12.5564979640
 C         7.0914832625       -1.2770750971      -17.9061638762
 C         7.5431703780       -1.5230589307      -15.3358312282
 C         6.0797319386        6.2760510787      -17.1590083713
 C         3.8858264553        6.1470850234      -15.9957627760
 C        -0.1971082556        2.4131952759      -19.1897016188
 C        -1.1179158231        4.7202150717      -19.9384079027
 C        -1.3819110638        5.5279757838      -12.5096934957
 C        -0.4344641923        7.7918057599      -13.2966244345
 H         2.6442341015        6.7830146912      -11.6405988713
 H         2.1170820493        5.2616032535      -11.0273614210
 H         1.0747035935        6.6017788465      -10.9146891105
 H        -2.5479150278        6.5563995453      -15.3725489840
 H        -2.6197297799        4.8425953361      -14.9519487254
 H        -1.2958588043        6.1468725493      -17.5762542464
 H        -2.8497503074        5.2760894284      -17.4831632309
 H         1.3410675199        5.9514362966      -20.3371756712
 H         2.4968354541        4.7221156373      -20.2334666183
 H         2.5510223696        6.7090750908      -17.9329719435
 H         3.1003081131        7.1910119174      -19.4828632254
 H         6.9698893419        3.6370599387      -15.9447979536
 H         6.9573567637        3.7970019947      -17.7066564789
 H         7.0679738255        1.5661630543      -18.1444920091
 H         5.5133177332        1.3754181865      -17.4804491351
 H         4.9087879771       -0.1924565811      -14.3811448422
 H         5.0806774989       -1.9546084679      -14.1979356956
 H         2.7466061396       -1.9862292509      -14.2283588501
 H         2.7846281872       -1.4395407161      -16.0283228575
 H        -1.0870350555        1.5413752216      -12.0302633566
 H         0.0428836434        0.6095845921      -10.8532870070
 H        -0.3236398213       -1.3092524466      -12.1428181297
 H        -1.0832449812       -0.4345495305      -13.5367891296
 H        -6.1751761593       -2.7292257011      -10.7723687425
 H        -5.5785761823       -1.0133263499      -11.1157957975
 H        -6.1157508051       -0.5776804814       -8.9464534803
 H        -4.5839515376       -0.9561926138       -8.7754950441
 H        -3.7975710274       -4.6487407658       -7.8921754417
 H        -5.2841975613       -5.5284078689       -7.4280501806
 H        -3.2171401284       -6.9399099483       -6.9153280476
 H        -4.4913081577       -6.7286118466       -5.7619172853
 H        -4.5432543157       -5.1217034730       -2.9120708961
 H        -4.1083765870       -6.1231191548       -1.6053551577
 H        -6.6442136168       -5.9588177250       -1.5829253519
 H        -6.1317421649       -7.5525664694       -1.6769653007
 H        -9.3753014893       -8.3027032262       -6.5346664823
 H        -8.0362250773       -9.6278667780       -6.5652610971
 H        -8.3897320817       -9.0895305363       -8.8578453909
 H        -6.9513976279       -8.4169712842       -8.4188796740
 H       -12.5751191103       -6.3330029648       -6.8830316869
 H       -12.5307926493       -6.2676244840       -8.6577027814
 H       -13.4233563002       -4.1805111393       -8.0753307187
 H       -11.7286306650       -3.7655341891       -8.0956654679
 H        -9.4611083387       -4.4555423804       -3.8839374436
 H       -11.2017223452       -4.3316501128       -3.8729288270
 H       -10.0969788132       -1.7539567884       -2.8949991638
 H        -8.7750336218       -2.9571371317       -2.5463921236
 H       -11.8707133838       -5.9165061742       -0.0966616803
 H       -10.7153383373       -6.9053894249        0.8175831089
 H       -11.1523736116       -7.1629947769       -0.8895134822
 H        -8.1580465226       -2.6214750626       -0.5774933353
 H        -7.8476900682       -4.0646047966       -1.3597307569
 H        -7.6338965722       -3.9537226720        0.4238367559
 H        -9.8401705982       -4.5093434529        1.8918624598
 H       -11.1957834709       -3.4199851571        1.3594299578
 H        -9.5998706766       -2.8989323544        1.5185171394
 H       -11.6736202670       -0.6575789254       -6.2682380906
 H       -13.0247897421       -1.2975223290       -7.1331937958
 H       -11.4235251253       -1.4793498955       -7.5572763524
 H       -12.9576334732       -3.0280407753       -3.6415655236
 H       -13.9261727501       -2.1156349893       -4.6302001729
 H       -12.5064725581       -1.3795057638       -3.7614212958
 H        -9.2765559793       -4.7540177368       -9.8010797860
 H       -10.8603699054       -5.2386164929      -10.2806392322
 H        -9.5114361889       -6.0534314507      -10.9202006461
 H       -10.0679883818       -8.8032833493       -9.9140606397
 H       -11.6323788392       -7.7200609287       -9.7087326920
 H       -10.7773605847       -8.5007016721       -8.2343142675
 H        -6.2103032534       -9.0463039887       -3.2248399548
 H        -7.4974552488       -9.9179272521       -4.2744211566
 H        -7.9624352158       -9.3019723807       -2.7333413851
 H        -9.3391686915       -7.2390040084       -2.8498393212
 H        -9.7889368655       -8.5742802516       -3.8390854588
 H        -9.6353581897       -6.8923626402       -4.5516944709
 H        -1.1953253633       -8.4223939755       -3.7617814898
 H        -1.0305917746       -7.4534338021       -5.2018782197
 H        -2.6097533382       -8.4125519751       -4.8916460209
 H        -0.9744867676       -6.6139732700       -2.1900148690
 H        -1.8626128263       -5.1936736891       -2.1996501205
 H        -0.7327825087       -5.3550835584       -3.4620282576
 H        -3.1558012445       -1.1972009310       -7.6013945120
 H        -2.8882818018       -2.8584437399       -7.9447005588
 H        -2.4787106110       -2.2487596006       -6.3858844344
 H        -4.3943270727       -1.3025670372       -4.9568892791
 H        -6.0426382987       -1.6346957301       -5.1483779107
 H        -5.3949395173       -0.4402271122       -6.1959701201
 H        -4.3703448554       -2.9990089419      -13.7850572897
 H        -3.4638915968       -1.3766708618      -14.0806192465
 H        -4.8451399944       -1.3611543184      -13.2595314058
 H        -2.7107752429       -4.1122847464      -12.5103039453
 H        -1.6321941384       -3.3526640192      -11.2398609073
 H        -1.3944247740       -2.9771531994      -13.0467374715
 H         1.6939528013       -1.4291345074      -12.1611110918
 H         2.0769838457       -0.3030118753      -10.8181504784
 H         3.3411679159       -0.9719277975      -11.8962283767
 H         4.3347326389        1.1994213441      -12.7371764735
 H         3.1659981655        1.7868960792      -11.4416114502
 H         3.0600403608        2.4438938297      -13.0984271197
 H         6.4147442536       -0.8251278784      -18.6984916175
 H         6.9886692192       -2.2989496266      -17.8825955719
 H         8.1592097068       -0.9934426044      -18.1435717185
 H         8.6045361698       -1.2409181658      -15.4436674867
 H         7.4739760007       -2.5750819861      -15.6006785874
 H         7.1330175556       -1.3305410321      -14.4289814939
 H         6.4189416527        6.4268910805      -18.1890143781
 H         6.8608032914        5.8394461253      -16.4454716312
 H         5.9363028846        7.3118391145      -16.9360023754
 H         3.0699338068        5.5675510223      -15.5768341188
 H         3.6153260224        7.2369104506      -16.2668727297
 H         4.5655227657        6.4794072577      -15.1656526374
 H        -1.1116082948        2.0397626913      -19.5569759794
 H         0.2000206905        1.8187401160      -18.3130207968
 H         0.3867890954        2.2973890323      -19.9948727357
 H        -0.5931351397        4.6881470956      -20.9342276957
 H        -1.3496683995        5.7294103212      -19.6559195799
 H        -2.0797506829        4.1333464462      -20.0238136889
 H        -1.2182620571        5.7211522785      -11.4114671389
 H        -1.2951785623        4.3874381839      -12.6829838984
 H        -2.3283661723        5.9018424967      -12.7767011481
 H         0.4548603180        8.3171980577      -13.7965087593
 H        -0.5780933870        8.1052878256      -12.2930572667
 H        -1.3388805850        8.0270781651      -13.7513042209
 Na        1.5952916904        3.1241680136      -15.5137055349
 Na       -7.7664228423       -4.7332712514       -6.2381868763
