232

 C         1.4180345027        6.3257061845      -11.4676366258
 C         1.1186890638        5.7155511802      -12.8556532251
 O         1.8559661274        5.0625457971      -13.4818139050
 C        -0.3030389443        6.0666751698      -13.5021176817
 C        -0.5404913948        5.4236716513      -14.9705861800
 O         0.3542252779        5.5368588308      -15.7825965644
 C        -1.9139846176        4.9784857516      -15.4400934700
 C        -1.9759168181        4.7869076834      -16.9053202141
 C        -0.7984132363        3.7499942038      -17.2865404475
 O        -0.4734242799        2.9204459901      -16.4729258126
 C        -0.2142666486        3.7131843094      -18.7712654615
 C         1.2269495692        4.2974770778      -18.6460360949
 O         1.9408152252        3.9610742090      -17.6408040471
 C         1.8313870551        5.0971075079      -19.7336491873
 C         2.9579913389        6.0643113026      -19.2612279487
 C         4.2861361140        5.4342381556      -18.6158676897
 O         5.1502634069        5.0254791426      -19.3223357304
 C         4.6333217653        5.4771533684      -17.0116392241
 C         4.5962257551        4.0233552122      -16.6220397754
 O         3.7968222007        3.6578699991      -15.7412905356
 C         5.5921860098        3.0737828558      -17.1654726629
 C         5.3328737545        1.5997689252      -16.6905639583
 C         6.5423080023        0.8268730858      -16.2062107403
 O         7.4714647615        1.4856064626      -15.7638917384
 C         6.5391305113       -0.7460239433      -16.3060283233
 C         5.0423124237       -1.3319924564      -16.1633483037
 O         4.5415896970       -1.5189835210      -17.2642090681
 C         4.2868872963       -1.5496074460      -14.8008892556
 C         2.7511643482       -1.3604990214      -14.7986700568
 C         2.3557143361        0.1302532169      -14.4312988735
 O         2.2541377580        0.9840347465      -15.2557792393
 C         2.1358409141        0.4322973074      -12.9642170786
 C         0.6770836634        1.1406133260      -12.8486266875
 O         0.3936815162        2.0636815233      -13.5255279705
 C        -0.3002980167        0.6669412229      -11.6718817738
 C        -0.8441141512       -0.7724884632      -11.9347202055
 C        -2.3084198073       -0.8499667325      -11.4821233438
 O        -2.9162234208        0.1679851197      -11.1266683729
 C        -3.0794772659       -2.1981600793      -11.7274986500
 C        -4.1502749214       -2.4738547291      -10.4582165549
 O        -3.7408919371       -3.3286970727       -9.6905294037
 C        -5.4285220383       -1.5357511898      -10.3047415646
 C        -5.5887519655       -1.1044339309       -8.8989212510
 C        -5.6115644930       -2.2434251066       -7.8389444792
 O        -6.4821415074       -3.0722115838       -7.9843363638
 C        -4.5068856836       -2.4692078079       -6.7359547631
 C        -4.5457504332       -4.0237923723       -6.3342788287
 O        -5.3006565261       -4.3795737321       -5.4512954604
 C        -3.8590833392       -5.1138094857       -7.0660991411
 C        -3.3922257100       -6.3173577281       -6.2627214430
 C        -2.3826795157       -5.9606211921       -5.0464853768
 O        -1.9497524460       -4.8545165009       -4.9315325370
 C        -2.2208079335       -6.9026918806       -3.8756138905
 C        -3.7441098315       -7.4010707164       -3.4540361594
 O        -4.0906759837       -8.5560668620       -3.4210026216
 C        -4.6222441783       -6.2585045267       -2.8350505192
 C        -5.9629635729       -6.5624170900       -2.3014365354
 C        -6.9408380952       -6.4236782814       -3.4839222617
 O        -7.2635023554       -5.3386841287       -3.8965637605
 C        -7.6987809108       -7.6762134316       -4.1243949446
 C        -7.5636351898       -7.5555724106       -5.6776011448
 O        -6.6662794493       -6.8007849265       -6.0398198389
 C        -8.4621385254       -8.3279635049       -6.5417840194
 C        -8.2078697270       -8.1018801068       -8.0196632088
 C        -8.5395598984       -6.7162979570       -8.6830890083
 O        -7.5915203426       -5.8542812879       -8.6630689001
 C        -9.8667381695       -6.2790861519       -9.2514417836
 C       -10.6832791349       -5.7291214176       -7.9920451536
 O       -10.1995119182       -5.6755167960       -6.9031322698
 C       -12.1991888025       -5.5533758078       -8.1790497010
 C       -12.6125472400       -4.1034705799       -7.8304321166
 C       -12.7398336309       -3.7816886330       -6.2621700840
 O       -13.2706247588       -4.5826563701       -5.5232309235
 C       -12.0067009331       -2.4370015306       -5.7224369609
 C       -10.5845336356       -3.0187296428       -5.4196641707
 O        -9.7421652968       -3.0508200936       -6.3082316505
 C       -10.3822564045       -3.7806129883       -4.1269815263
 C        -9.7353713089       -2.9401750172       -3.0094732032
 C       -10.2842733245       -3.3460163988       -1.6287442308
 O       -11.4631150112       -3.3104850634       -1.3824447491
 C        -9.3447650151       -3.8643481506       -0.4748254206
 C        -9.5571796092       -5.4693099477       -0.3771499655
 O        -8.5436660542       -6.1474926798       -0.4428671094
 C       -10.9656557137       -6.0492892206       -0.4670381455
 C        -7.8702941228       -3.7407297580       -0.9275482654
 C        -9.4949488003       -3.2701344197        0.9898760070
 C       -12.0991645533       -1.2311055546       -6.6497122613
 C       -12.8253772730       -2.0674328439       -4.4054617836
 C        -9.5763327001       -5.0463586017      -10.0629707914
 C       -10.6635613316       -7.4309553690      -10.0178844372
 C        -7.2196534849       -9.0795865524       -3.5981997128
 C        -9.2052494341       -7.4017960586       -3.7166432345
 C        -1.4343033116       -8.1865890653       -4.2632832974
 C        -1.4296092529       -6.1904286374       -2.7521032490
 C        -3.1093646974       -2.1100870982       -7.1607096729
 C        -4.9568126038       -1.4055804983       -5.6257248638
 C        -3.8364138369       -2.1568379422      -13.0157300053
 C        -2.1228628668       -3.3726988382      -11.6424986756
 C         2.2704145794       -0.8315054268      -12.0927771289
 C         3.1411435432        1.5581544832      -12.4909213534
 C         7.1008673624       -1.2783619559      -17.7356044937
 C         7.5461459543       -1.2364771896      -15.1520663223
 C         6.0183347551        6.0385670610      -16.8259386511
 C         3.5627463087        6.2915272820      -16.2518350866
 C        -0.0526594000        2.2468220942      -19.2778240649
 C        -1.1563324389        4.4638928233      -19.6921413481
 C        -1.3422309875        5.5491538194      -12.5359161178
 C        -0.4374653609        7.5968705562      -13.7020554134
 H         1.5346300127        7.3853062841      -11.5620996992
 H         2.3015113274        5.9334571831      -11.0215291797
 H         0.6035008264        6.1884997856      -10.8183652516
 H        -2.7140624120        5.7084121285      -15.0985796869
 H        -2.1709208490        4.0728115013      -14.9039701492
 H        -1.8924645554        5.7517893152      -17.4462718255
 H        -2.8825932429        4.2486395366      -17.1477870938
 H         1.1341411627        5.7532777607      -20.3003567598
 H         2.2380885246        4.3704253484      -20.4795744871
 H         2.5250051168        6.7237184846      -18.5123763546
 H         3.4148486676        6.5660986323      -20.1036440507
 H         6.6244299775        3.4044511454      -16.9095677787
 H         5.4924011157        3.0230730782      -18.2840984346
 H         4.8960383725        0.9743890900      -17.4637338831
 H         4.5141651833        1.5103684032      -15.9019088959
 H         4.6729133216       -0.9171720774      -13.9203823068
 H         4.5604745477       -2.6240669422      -14.6709858020
 H         2.2988444097       -2.1724307826      -14.2169769176
 H         2.4564548675       -1.6093885789      -15.8505906485
 H        -1.1426493797        1.3456193228      -11.6980932688
 H         0.2088738532        0.7656581676      -10.6628070676
 H        -0.1837039028       -1.4620962993      -11.3215560241
 H        -0.7947336878       -0.9727352018      -12.9817340734
 H        -6.3407598290       -2.0912156988      -10.5414411570
 H        -5.3087931927       -0.6101098965      -10.9272764161
 H        -6.7018191224       -0.7040507421       -8.8679498263
 H        -4.7822552820       -0.2571728960       -8.7321076356
 H        -3.0537005366       -4.7657175711       -7.7681834100
 H        -4.5947352529       -5.4763866541       -7.7887774315
 H        -2.9355776035       -7.0280434148       -6.9149095153
 H        -4.1712586117       -6.9095569642       -5.7123001883
 H        -4.5303907822       -5.3420491525       -3.3083697830
 H        -3.9924471038       -6.1141913014       -1.9336750803
 H        -6.2381668812       -5.8148092921       -1.5103288050
 H        -6.0514508123       -7.5013045599       -1.8914493775
 H        -9.4713492386       -7.8387016566       -6.2478359605
 H        -8.2992066807       -9.3564341235       -6.4194311023
 H        -8.8217773011       -8.8961690643       -8.4769827216
 H        -7.1640049018       -8.3563339967       -8.2812604601
 H       -12.6052922797       -6.2413761974       -7.4792850964
 H       -12.5847951614       -5.7683099612       -9.1816375924
 H       -13.6402836000       -3.9553726829       -8.1774240685
 H       -11.9949578238       -3.4497296372       -8.3682858560
 H        -9.7824820564       -4.6033816695       -4.4204174290
 H       -11.2580678202       -4.2715815058       -3.6202764199
 H        -9.8516565249       -1.8147901571       -3.0131979835
 H        -8.6851330214       -3.0035984445       -2.9130242182
 H       -10.9896346058       -7.1547501566       -0.3808764277
 H       -11.3915014510       -5.7362026291       -1.3886459066
 H       -11.6202709613       -5.7182109410        0.3094250088
 H        -7.7092498606       -2.7409053688       -1.1939779808
 H        -7.6620221703       -4.4287378081       -1.7270748445
 H        -7.1256457312       -4.0694919537       -0.1650174684
 H        -8.8124426893       -3.7507354545        1.6758917783
 H       -10.4421106648       -3.4940070154        1.4377981062
 H        -9.3512522193       -2.1583308052        0.9916954133
 H       -11.7150826841       -0.3247711857       -6.2571594501
 H       -13.0512551140       -0.8942305905       -7.0424680015
 H       -11.4950663652       -1.4982986955       -7.4754592224
 H       -12.9970340531       -2.8986233053       -3.7144839175
 H       -13.7358095962       -1.6490112828       -4.8092672160
 H       -12.4957627829       -1.2055139187       -3.8367945332
 H        -8.9391516942       -4.5075380282       -9.4496973525
 H       -10.3873676592       -4.5054501332      -10.4548463763
 H        -8.9361745127       -5.1916962516      -10.9195742641
 H        -9.8747640869       -8.0497306180      -10.4463953852
 H       -11.2818588489       -6.8850951727      -10.8116413976
 H       -11.4070529918       -7.8718675983       -9.2736378342
 H        -6.2821382858       -9.3695307642       -3.9967662732
 H        -8.0519327018       -9.7974426558       -3.8847048807
 H        -7.2039928510       -9.0311964448       -2.5052192883
 H        -9.2837567232       -7.5216883564       -2.6167892098
 H       -10.0275241986       -8.1223513329       -3.9894807905
 H        -9.5718618394       -6.4584625229       -4.0925588428
 H        -1.3964636152       -8.8807643585       -3.3937431818
 H        -0.3863585811       -7.8452736017       -4.5511631040
 H        -1.9914926899       -8.7034118983       -5.0934077612
 H        -1.5014041636       -6.6412892753       -1.7792510130
 H        -1.6475581282       -5.0787405603       -2.6771702788
 H        -0.3708137691       -6.2607565720       -3.0102888906
 H        -2.9968753062       -1.0471198574       -7.4901751526
 H        -2.6923774274       -2.7384589506       -8.0202611924
 H        -2.3530933816       -2.2432502142       -6.3646211160
 H        -4.5524083398       -1.7181296789       -4.6553744013
 H        -6.0363717400       -1.3401115487       -5.4133370901
 H        -4.5649855833       -0.3833081657       -5.7914835964
 H        -4.3850702270       -3.0385055609      -13.3288841782
 H        -3.0387909148       -1.9351071937      -13.7950678242
 H        -4.5347157924       -1.2690320085      -13.0122158594
 H        -2.7373200611       -4.2490508505      -11.6995015906
 H        -1.7888150120       -3.3717705414      -10.6126885063
 H        -1.2966570434       -3.2712211285      -12.3742787286
 H         1.6806948865       -1.6762824490      -12.4067013371
 H         2.0999018752       -0.5370642499      -11.1159712997
 H         3.3429605610       -1.1799421713      -12.0660477331
 H         4.2197672871        1.3027534521      -12.6073582991
 H         3.0298297130        1.4494087890      -11.4449570281
 H         2.8108726558        2.5763276028      -12.7275786446
 H         6.5484728219       -0.9345273330      -18.5689953478
 H         6.9748585424       -2.4357525693      -17.8122728258
 H         8.1314605287       -0.9541673216      -17.7617314717
 H         8.4316532468       -0.7262866578      -15.2432533050
 H         7.7139918382       -2.2525507272      -15.2548080695
 H         6.9435601616       -1.0744255566      -14.2154217239
 H         6.7726339592        5.3087118716      -17.0695928302
 H         6.2742698773        6.0960576232      -15.7878849994
 H         6.1580069793        7.0610966560      -17.2666579968
 H         2.5456162752        5.7126788828      -16.2874120714
 H         3.4426692123        7.3427666671      -16.5618508915
 H         3.8688440548        6.1839855272      -15.1747438158
 H        -0.9593695739        1.7720681592      -19.5505845553
 H         0.3005516569        1.6947826510      -18.5277834155
 H         0.7702547317        2.2324359518      -20.0665793417
 H        -0.7874937261        4.4687716165      -20.7265857429
 H        -1.2991082516        5.5346193877      -19.3307679642
 H        -2.1738121679        4.0922975633      -19.6795775014
 H        -1.0370705642        5.4130162443      -11.5253536306
 H        -1.5571813397        4.5624480435      -12.8906912987
 H        -2.3945422207        5.9937007240      -12.7488446477
 H         0.3982826402        7.9635836583      -14.1474270624
 H        -0.5537068774        8.0396873019      -12.6993011092
 H        -1.3915943467        7.7099400682      -14.2752097909
 Na        1.6380119202        3.2601684258      -15.3381534565
 Na       -7.8446830084       -4.3170643017       -6.2892349607
