232

 C         1.5531716648        6.3890547730      -11.6782439381
 C         1.0357354910        5.7717451552      -12.9472401929
 O         1.7134846056        4.9290877551      -13.5747834549
 C        -0.4271318652        6.1371566414      -13.5092280246
 C        -0.5429243068        5.5481703012      -14.8734197776
 O         0.4035847063        5.5737169689      -15.6681603690
 C        -1.8237537799        4.7179406128      -15.3311665614
 C        -1.8694424273        4.4641257772      -16.9211667697
 C        -0.7017354411        3.5298446959      -17.3296877229
 O        -0.3083649501        2.6269945454      -16.5848687776
 C        -0.1414840119        3.6567718846      -18.8021901421
 C         1.3609776721        4.2008255873      -18.5496960326
 O         2.0614042040        3.8048914008      -17.6826752324
 C         2.0129863455        4.9733450736      -19.7111491643
 C         2.9236908111        6.1059307695      -19.1856537420
 C         4.1935394221        5.4127074810      -18.5785888982
 O         4.9201645118        4.7680784629      -19.3063887433
 C         4.5437336947        5.4889519922      -17.0261057935
 C         4.3810319210        4.0248371411      -16.4046087986
 O         3.8035073934        3.7574183793      -15.4022112590
 C         5.2585364907        2.9915471673      -17.1215708672
 C         5.0246956110        1.5027147221      -16.8769277979
 C         6.2294935114        0.8625293909      -16.2750196567
 O         7.2093227084        1.4881048425      -16.0008992807
 C         6.3362991839       -0.7550587795      -16.1933698495
 C         4.9812426840       -1.4672922742      -16.2008424038
 O         4.4040152189       -1.9860160672      -17.1243779281
 C         4.3255096845       -1.5698484190      -14.7049228441
 C         2.7990147418       -1.2524675934      -14.9993071396
 C         2.4726681418        0.0859022961      -14.5386135473
 O         2.4209855005        1.0056552744      -15.3578087611
 C         2.1909488469        0.4241270303      -12.9774323277
 C         0.6654785278        0.9796511026      -12.7964646276
 O         0.2539288065        1.8874949224      -13.5212432525
 C        -0.3000791691        0.5169033695      -11.6758533858
 C        -0.8165025149       -0.9121480007      -11.8185696628
 C        -2.3416064533       -0.9182025283      -11.4633398763
 O        -2.8828324642        0.0630556685      -11.0573362800
 C        -3.0603133250       -2.2803893951      -11.6833575301
 C        -4.2771688167       -2.3846305590      -10.5976256942
 O        -4.1375491286       -3.2468069439       -9.7356182741
 C        -5.3508073200       -1.2854351004      -10.3438976854
 C        -5.3260238427       -0.9724008606       -8.7073510231
 C        -5.4799274087       -2.2130522025       -7.8119230317
 O        -6.5292074863       -2.8316512059       -7.7979101780
 C        -4.4219738831       -2.4835000605       -6.6354111673
 C        -4.5356739193       -3.9648877448       -6.4233491260
 O        -5.4658861643       -4.3787020495       -5.7338973674
 C        -3.4754350487       -4.8603477880       -7.0723832134
 C        -3.1725488894       -6.1364858677       -6.3229818733
 C        -2.2670708464       -5.8679710352       -5.0150713848
 O        -1.6527047998       -4.7892859476       -4.9879471363
 C        -2.2416565742       -6.8855057755       -3.9130401023
 C        -3.7290483686       -7.2936353872       -3.4267556332
 O        -4.0084671370       -8.4289916274       -3.1724683999
 C        -4.6407099219       -6.1589915112       -2.9818395667
 C        -5.9489901167       -6.7216036116       -2.3443242430
 C        -7.0865182548       -6.5333235481       -3.4132663385
 O        -7.3991996770       -5.3730018106       -3.6490233003
 C        -7.8685160029       -7.7188407752       -4.1596595898
 C        -7.6498335935       -7.5348584194       -5.6740387001
 O        -6.7499222452       -6.8660614818       -6.1125169560
 C        -8.6900623408       -8.1586821295       -6.5757109347
 C        -8.2822794503       -7.9801593463       -8.1627409414
 C        -8.3942057732       -6.5662437104       -8.6144783571
 O        -7.4714945128       -5.8765938244       -8.4601758154
 C        -9.8280285511       -6.0948916124       -9.2425953206
 C       -10.7231466139       -5.5354872115       -8.0254259939
 O       -10.2638264068       -5.4801328695       -6.8697282424
 C       -12.1854160784       -5.3541284376       -8.3256494993
 C       -12.7303830445       -3.9789402849       -7.8936486480
 C       -12.7820065716       -3.7615302623       -6.3598106806
 O       -13.3617193049       -4.5888377744       -5.6861423678
 C       -11.9750908823       -2.4692000650       -5.8286074279
 C       -10.5510213160       -3.0532493841       -5.4650157167
 O        -9.6818280484       -2.8702448730       -6.2893427036
 C       -10.2720379242       -3.6422545967       -4.1387484911
 C        -9.7342218210       -2.6397105780       -3.1129178945
 C       -10.1004498179       -3.2421510184       -1.6696301105
 O       -11.2982401794       -3.2504146447       -1.3444720855
 C        -9.1525399872       -3.8719599400       -0.6711303298
 C        -9.3731344889       -5.4490008067       -0.3958315641
 O        -8.4976246295       -6.2360027595       -0.1762812523
 C       -10.8846596449       -5.8477057353       -0.2535853547
 C        -7.6241138406       -3.5466671300       -0.8844172882
 C        -9.5164860760       -3.2867414510        0.6752877457
 C       -11.8598449490       -1.3363462780       -6.7706475358
 C       -12.7076970643       -2.0253718548       -4.5191955744
 C        -9.6804707284       -4.8362007000      -10.0920144905
 C       -10.5369729813       -7.2248611984      -10.1713185731
 C        -7.2173222244       -9.1355191472       -3.7548229490
 C        -9.3416939392       -7.7416502458       -3.6782591996
 C        -1.6513357596       -8.2029976563       -4.5140089708
 C        -1.5113331095       -6.4596077772       -2.5936131070
 C        -3.0411182759       -1.9095840018       -6.8420844268
 C        -4.9808607316       -1.8684873488       -5.3770165187
 C        -3.6803671310       -2.2093620919      -13.1274153688
 C        -2.1103596908       -3.4945588079      -11.6030711197
 C         2.4096039352       -0.6837571444      -11.9507074537
 C         3.1057839509        1.6673622639      -12.5785534169
 C         7.0296631214       -1.1105264148      -17.5487255896
 C         7.2391846430       -1.1615102714      -15.0930046277
 C         6.0084048751        6.0479170910      -16.9739056944
 C         3.6110533496        6.5682143235      -16.3351657147
 C         0.1078569634        2.1917089769      -19.3244066619
 C        -0.9383079454        4.4636923008      -19.9199721094
 C        -1.4933388294        5.5987442402      -12.5149255645
 C        -0.6102543432        7.7127065384      -13.5368103396
 H         1.1894162721        7.4238279998      -11.4749808588
 H         2.6366322815        6.4688088980      -11.8019895346
 H         1.3573535376        5.7747108694      -10.7652930864
 H        -2.7372199454        5.0574503546      -14.9123009107
 H        -1.7056438305        3.7063162150      -14.8711225763
 H        -1.8432646313        5.2792128278      -17.5858772063
 H        -2.7666956125        3.8474056183      -17.1046174556
 H         1.3776437937        5.3191027196      -20.5195211660
 H         2.7671664316        4.3344609481      -20.1521679305
 H         2.4173837183        6.7293897613      -18.4673430217
 H         3.4626395973        6.6172295515      -20.0114181789
 H         6.3116081986        3.1683185383      -16.9312940474
 H         5.0983698879        3.0293412972      -18.1716129001
 H         5.0083120315        1.0050426253      -17.9031405235
 H         4.1454057258        1.0976574822      -16.4017408805
 H         4.6309401489       -0.7558676605      -14.0832333250
 H         4.4981341954       -2.5676090266      -14.2367725647
 H         2.1875626461       -2.0358916368      -14.6076360254
 H         2.6366646228       -1.4358472651      -16.0408273910
 H        -1.1497378872        1.2348690619      -11.5738130455
 H         0.1856741079        0.6450947051      -10.7287625872
 H        -0.2812032777       -1.6086564532      -11.2344367649
 H        -0.7478840292       -1.2269377416      -12.9070570415
 H        -6.3493389949       -1.6341933403      -10.6541209685
 H        -5.0898609207       -0.3501288985      -10.8117439785
 H        -6.0628589208       -0.3321151717       -8.4501471052
 H        -4.3624695758       -0.6675348879       -8.6175708563
 H        -2.5936928167       -4.2896939024       -7.2069742198
 H        -3.7339660005       -5.0815265573       -8.1132750383
 H        -2.5046113847       -6.8621374553       -6.8783841927
 H        -3.9984941775       -6.7405373650       -6.0075146032
 H        -4.8387136560       -5.4746556198       -3.9227142654
 H        -4.0417330755       -5.4301137630       -2.4016073734
 H        -6.2290010769       -6.1365123078       -1.4863590411
 H        -5.9327742347       -7.8537691112       -1.9975509165
 H        -9.5930753537       -7.7057367625       -6.3097746817
 H        -8.5910660609       -9.2862687160       -6.5312042548
 H        -8.9086877720       -8.7842891001       -8.6243968833
 H        -7.2202725589       -8.2359893368       -8.3298208556
 H       -12.7259380019       -6.1189341263       -7.6900323362
 H       -12.4481226005       -5.5258913851       -9.3653683578
 H       -13.8027496881       -3.9701912541       -8.2175590093
 H       -12.2649425916       -3.1082860045       -8.4821653950
 H        -9.5437151913       -4.4931952143       -4.2436466497
 H       -11.1038092970       -4.1559451527       -3.7367619840
 H       -10.1680668474       -1.6764779626       -3.1320830412
 H        -8.6696032558       -2.3648073149       -3.2915202511
 H       -11.1696738291       -6.0878825431        0.7527351537
 H       -11.1887909201       -6.7216308969       -0.9089986897
 H       -11.5542235102       -5.0050746635       -0.4714928372
 H        -7.4890702389       -2.4926399157       -0.5345812955
 H        -7.3014839992       -3.7782838948       -1.9101418579
 H        -7.0212000273       -4.2102907188       -0.3399598541
 H        -9.2099519418       -3.8523052302        1.5654280430
 H       -10.6387234245       -3.2725984949        0.8043153835
 H        -9.1467677516       -2.2954597894        0.7008205563
 H       -11.4437414750       -0.3748366854       -6.3240608048
 H       -12.8437561376       -0.9525129635       -7.0229172962
 H       -11.3273523765       -1.5706818043       -7.7398974051
 H       -12.7595205199       -2.9484220792       -3.9301637326
 H       -13.6120118373       -1.4603783553       -4.6366416873
 H       -12.1563619914       -1.2691945172       -3.9948440409
 H        -9.0878273781       -4.0688095124       -9.5654742365
 H       -10.7244958266       -4.4734373566      -10.3130739152
 H        -9.1950351220       -4.9400406996      -11.0327605539
 H        -9.7075039591       -7.8425015976      -10.4382558631
 H       -11.0231432946       -6.8180829201      -11.0042989224
 H       -11.2486004915       -7.6806601246       -9.5751978916
 H        -6.1527411410       -8.9154343636       -3.3861495298
 H        -7.1942399661       -9.8626994297       -4.5231636359
 H        -7.8095872920       -9.4779534757       -2.9000406203
 H        -9.4876345501       -7.4623877889       -2.6300274167
 H        -9.8666699985       -8.6682965782       -3.8322239585
 H        -9.9450957049       -7.0514954840       -4.3025819671
 H        -1.5361785559       -8.9442729726       -3.7237447847
 H        -0.7697560485       -7.9622232805       -5.0113368957
 H        -2.3574502004       -8.5322592124       -5.2551130912
 H        -1.3671906837       -7.3469054908       -1.9627597050
 H        -2.0454734612       -5.7357819235       -2.0827981868
 H        -0.4935380323       -6.0947301816       -2.7498299391
 H        -2.9009848641       -0.8532259242       -6.8671823758
 H        -2.5915352877       -2.2989854452       -7.6918871152
 H        -2.4152562794       -2.2639606472       -6.0338819226
 H        -4.2804545272       -1.8750182720       -4.5291551285
 H        -5.8508819263       -2.4075665827       -5.0795724289
 H        -5.2574827321       -0.8378646313       -5.4714550523
 H        -3.7501726872       -3.2968058277      -13.4201998386
 H        -3.1298101446       -1.7382285585      -13.9298073677
 H        -4.7187150311       -1.9349014601      -13.0613390747
 H        -2.8045380400       -4.3819723249      -11.4841712142
 H        -1.4557563142       -3.4595845861      -10.6850453242
 H        -1.5476507205       -3.4627064409      -12.5310893641
 H         1.6015716045       -1.4140490445      -12.0206340212
 H         2.3286939514       -0.1594163655      -10.9214451683
 H         3.3339578919       -1.1821734377      -11.9617774947
 H         4.1007434784        1.2907088158      -12.5960172122
 H         2.9607616495        2.0366233495      -11.5005396517
 H         2.9242664407        2.4868080635      -13.2737033805
 H         6.3933705699       -0.8904404916      -18.4525499047
 H         7.2583941426       -2.1046394574      -17.6021957604
 H         7.9428735646       -0.4749405274      -17.5717600065
 H         7.7269285603       -0.1402448613      -14.8691595292
 H         8.0051406466       -1.9063468152      -15.3913560976
 H         6.6847837640       -1.4412325154      -14.2159628276
 H         6.7048123988        5.2165636242      -17.0660963381
 H         6.3703187610        6.4961188168      -16.0139779891
 H         6.1136271650        6.8781545716      -17.6241181064
 H         2.6325505626        6.2440684232      -16.2670218679
 H         3.5790663512        7.4553916952      -17.0181791093
 H         3.9720775079        6.7981140335      -15.3576926352
 H        -0.9009044023        1.7320247205      -19.5269182717
 H         0.5555353708        1.4785040099      -18.5232604741
 H         0.8195885388        2.2122309269      -20.0811143831
 H        -0.6451817400        4.2018149172      -20.9464597040
 H        -0.7970896924        5.5066900474      -19.8306996344
 H        -2.0304826410        4.3246738926      -19.8318843064
 H        -1.4189746008        6.2640442632      -11.6259428914
 H        -1.3869424090        4.5376742912      -12.1573653907
 H        -2.4571747946        5.6216177538      -12.9094554864
 H         0.3318531461        8.1770356606      -14.0382422939
 H        -0.6661001234        8.0615818748      -12.4729910019
 H        -1.5437435501        7.8747546534      -14.0718947498
 Na        1.4214262669        3.2111822607      -15.1077197624
 Na       -7.7439070062       -4.7671369831       -6.2398834472
