232

 C         1.5545144054        6.6827355903      -12.0755790342
 C         0.8219909108        5.7024964709      -12.9707352554
 O         1.2740713039        4.5796353670      -13.0424482950
 C        -0.5226375698        6.0539153337      -13.5894808808
 C        -0.5250098581        5.4979005922      -15.0386242248
 O         0.1202865771        5.9629812100      -15.9488485722
 C        -1.5228762274        4.3113715198      -15.3553117680
 C        -1.6350220308        4.1755196216      -16.8625578842
 C        -0.6186284693        3.1303878002      -17.3341686035
 O        -0.2480040099        2.1580817341      -16.6480526467
 C        -0.1237990965        3.3048835421      -18.9170957254
 C         1.3373767743        4.0208736402      -18.6782456301
 O         1.9879639980        3.7557869732      -17.6700807145
 C         1.8542628709        4.9402185964      -19.7500574457
 C         2.7097565748        6.0302500779      -19.0282541623
 C         4.0467189748        5.4255416138      -18.5636543732
 O         4.8075029395        4.9591043214      -19.3564710044
 C         4.6341012731        5.5416065263      -16.9902975987
 C         4.4737883511        4.0263379323      -16.4010043852
 O         3.7501134159        3.7299552887      -15.5167709861
 C         5.1493348814        2.9225923925      -17.2705689705
 C         4.8703363715        1.5134230133      -16.6479977775
 C         6.1410515590        0.8054705042      -16.1748497354
 O         6.9293667930        1.4480352061      -15.5206732777
 C         6.1789754572       -0.8113029273      -16.2626181594
 C         4.7770193606       -1.5205693894      -16.0917366680
 O         4.3864165653       -2.2283078381      -16.9799949251
 C         4.2123194004       -1.5659618055      -14.7232931894
 C         2.6671018072       -1.3008992773      -14.7980744183
 C         2.2491049113        0.1249588875      -14.4441280969
 O         1.8157403974        0.8027202158      -15.3255791914
 C         2.2104075240        0.6040680458      -12.9098519819
 C         0.7191765521        0.9208507043      -12.6821222567
 O         0.2512216817        1.7662399053      -13.3731280363
 C        -0.1065684220        0.2530504158      -11.5283544308
 C        -0.8176286761       -1.0415452772      -11.9181724026
 C        -2.2837953802       -1.0689999563      -11.3629513453
 O        -2.7518694063       -0.0237753180      -10.9452480383
 C        -3.1501792123       -2.3326410856      -11.5199766414
 C        -4.2108990299       -2.4881015003      -10.2600213978
 O        -4.3329445909       -3.5759641073       -9.6841273214
 C        -5.2491546467       -1.4439062819      -10.0897768703
 C        -5.2407285072       -0.8605564361       -8.6866557063
 C        -5.5911920846       -1.8632164785       -7.4996450505
 O        -6.7136651638       -2.3598578167       -7.5520215312
 C        -4.5553363974       -2.3173493940       -6.4234590650
 C        -4.3776950214       -3.9692647114       -6.5815827986
 O        -5.4087705350       -4.6003694462       -6.4114280227
 C        -2.9776827872       -4.5407159781       -6.8961606256
 C        -2.6770139214       -5.9313316526       -6.3923065024
 C        -2.2053363988       -5.8243175008       -4.8958159560
 O        -1.6664938196       -4.7637613859       -4.5585933877
 C        -2.2719865080       -7.0183987866       -3.9565652456
 C        -3.7291921744       -7.2594075789       -3.3474466312
 O        -3.9907141403       -8.4149396650       -3.0481236876
 C        -4.7125246064       -6.1535906066       -3.2345336210
 C        -6.1113362908       -6.5776603334       -2.6569171266
 C        -7.2670394712       -6.6195151720       -3.6911567339
 O        -7.7798412624       -5.6545978143       -4.2660803812
 C        -7.9015219474       -8.1104340585       -4.1738057909
 C        -7.7276831220       -7.8846852278       -5.7672775854
 O        -6.6557269560       -7.4770649262       -6.1700501008
 C        -8.8661077312       -8.0388403651       -6.7849879204
 C        -8.4749640754       -7.9145469775       -8.2579507849
 C        -8.4696687706       -6.4071273332       -8.6437766536
 O        -7.6602492722       -5.6773108291       -8.2743265957
 C        -9.7900914804       -5.7383191709       -9.3549463184
 C       -10.7468298776       -5.4611070392       -8.1280026521
 O       -10.2152690064       -5.2685268282       -7.0346287430
 C       -12.2412810323       -5.2635624473       -8.4307156251
 C       -12.5876846369       -3.8216269798       -8.0914515638
 C       -12.5654103698       -3.5783043990       -6.5618378138
 O       -12.9919762470       -4.4578373769       -5.8334112498
 C       -11.7257361021       -2.3386695903       -5.9519196899
 C       -10.3419471203       -2.9770497609       -5.4554148397
 O        -9.3467009683       -2.7684036077       -6.1188077372
 C       -10.4099208061       -3.7006920158       -4.1292438563
 C        -9.4416110611       -3.0885160380       -3.0732518158
 C        -9.9698322149       -3.1694455664       -1.6359618449
 O       -11.1678946240       -3.0186535109       -1.3333319581
 C        -8.9351670284       -3.6110705459       -0.4486768273
 C        -9.2267876254       -5.1614470889       -0.3157013758
 O        -8.3881545245       -5.9283066209       -0.6786715026
 C       -10.5502916072       -5.6504093234        0.1343709562
 C        -7.4801664306       -3.2095921688       -0.8994003828
 C        -9.2690293861       -2.8031313616        0.8577371447
 C       -11.3630516632       -1.2682847204       -7.0513357816
 C       -12.5426762050       -1.5792386413       -4.7752375653
 C        -9.4289297604       -4.4283134846       -9.9658085006
 C       -10.3396058363       -6.7099429911      -10.3976743043
 C        -7.1786707781       -9.3892302616       -3.6988647225
 C        -9.3946371774       -8.2051676797       -3.6452890789
 C        -1.8463059017       -8.4647082653       -4.6163902477
 C        -1.3896436740       -6.7644207993       -2.7795721148
 C        -3.2023872687       -1.5546661383       -6.4268100061
 C        -5.3543407766       -2.2028529569       -5.0379850399
 C        -4.0965194551       -2.1144552679      -12.6655794218
 C        -2.2973973669       -3.5995382007      -11.6148927627
 C         2.7671074729       -0.3848728394      -11.7719565954
 C         3.0016499648        1.9316627929      -12.7171930632
 C         6.7427908705       -1.2702565453      -17.6275631656
 C         7.1795355422       -1.2277081483      -15.0205450131
 C         6.1305527976        5.8385837532      -17.0378327540
 C         3.8284899667        6.5553502960      -16.1985844056
 C         0.2283365992        1.9283412040      -19.5581749857
 C        -1.2225451969        4.0385657336      -19.7700084010
 C        -1.4772563247        5.4167587792      -12.5592806982
 C        -0.8064826950        7.5666764288      -13.7006992511
 H         1.2491379724        6.7257182252      -11.0241804893
 H         1.4195565812        7.6357431344      -12.4693835814
 H         2.5991668756        6.5224346165      -12.1050898001
 H        -2.4548206397        4.5891785561      -14.9067279189
 H        -1.2157096902        3.4257099490      -14.7515262541
 H        -1.4534943974        5.0688051700      -17.3545679139
 H        -2.5939856274        3.7814121454      -17.1951425777
 H         1.1474750915        5.5787987639      -20.2783656110
 H         2.5233760137        4.4886445512      -20.4667880936
 H         2.1820981865        6.5606388186      -18.2402453437
 H         2.9699359448        6.7652055293      -19.8407808691
 H         6.2428836677        3.1338388325      -17.3702216082
 H         4.6953723688        2.9019244397      -18.2544508621
 H         4.1257816563        0.8595531955      -17.2458092519
 H         4.3951200620        1.8208502904      -15.7338512084
 H         4.6384014114       -0.7030273183      -14.0991194044
 H         4.4946032402       -2.5764870291      -14.2138622309
 H         2.1681263890       -1.9955729162      -14.1221181927
 H         2.3793472107       -1.6438595523      -15.7932042181
 H        -0.7591033050        0.9879337426      -11.0670011027
 H         0.4859042671        0.0158306387      -10.6802534808
 H        -0.3478803585       -1.9200482578      -11.6625946493
 H        -0.9746967441       -1.1593858375      -13.0183575856
 H        -6.2861164809       -1.8460503506      -10.2038637981
 H        -5.1666206698       -0.5996975814      -10.7676070616
 H        -6.0226447036       -0.2012146989       -8.7109537261
 H        -4.2619999009       -0.4717767993       -8.6544415811
 H        -2.2385080026       -3.8085218878       -6.6619064282
 H        -2.9233956523       -4.6557519706       -7.9924693103
 H        -1.7258237940       -6.3592433647       -6.8591489050
 H        -3.4549952216       -6.6788744902       -6.3932728693
 H        -4.6255674096       -5.5397188965       -4.2176926859
 H        -4.1636049635       -5.4052407920       -2.7111091102
 H        -6.4394877399       -5.8265072347       -1.8935584953
 H        -6.1000109236       -7.6408505349       -2.1594234838
 H        -9.4695106202       -7.2316207111       -6.4445602165
 H        -9.2915469880       -9.0402821308       -6.4289567342
 H        -9.3656634032       -8.2725675943       -8.8608636613
 H        -7.5033053593       -8.4461819573       -8.4579369200
 H       -12.9641922847       -5.8714935066       -7.8571432630
 H       -12.4685574942       -5.4871704699       -9.4463452009
 H       -13.6199350549       -3.5376380926       -8.4039156852
 H       -12.0081470136       -3.0382028055       -8.6441756577
 H       -10.1769590451       -4.7728190055       -4.2850000106
 H       -11.4419297357       -3.7980850809       -3.8648229425
 H        -9.3678165381       -2.0837706753       -3.4081604087
 H        -8.4231169997       -3.4973433069       -3.2659360719
 H       -11.4380233457       -5.1738339032       -0.2483980721
 H       -10.5833384454       -5.6454925747        1.2284211685
 H       -10.5948812437       -6.6417529069       -0.2371542853
 H        -7.4241145948       -2.1872279778       -1.3264954770
 H        -7.1295652936       -4.0019480833       -1.6104300535
 H        -6.9261470271       -3.1671422437       -0.0122354606
 H        -8.5292404682       -3.0177798776        1.6359641004
 H       -10.3351766511       -2.7908065727        1.2898823295
 H        -9.0751732496       -1.7879919293        0.5945989426
 H       -10.8673213357       -0.3480676412       -6.5640414398
 H       -12.3149886437       -0.9953870182       -7.4246098206
 H       -10.6915687125       -1.4410383948       -7.9059328923
 H       -12.8895879605       -2.4980204131       -4.2047322048
 H       -13.4207766090       -0.9928554660       -4.9933749818
 H       -11.8563632123       -1.0123420094       -4.1875883866
 H        -9.1681632629       -3.7199543266       -9.2391553919
 H       -10.3450292951       -4.0214540547      -10.4022896396
 H        -8.7029680810       -4.5198633534      -10.6990211550
 H        -9.4790102360       -7.1107072831      -10.9402884484
 H       -10.9885066747       -6.1130208134      -11.1233093312
 H       -10.8454559453       -7.5455223007       -9.8926102954
 H        -6.0768429386       -9.4627677778       -4.0229068522
 H        -7.7419602289      -10.2413652937       -4.0483013794
 H        -7.2448284130       -9.4090861252       -2.5759241173
 H        -9.4635316005       -8.6139387718       -2.6334634227
 H        -9.9571336473       -8.8182176035       -4.3803855872
 H        -9.9536546894       -7.2986855259       -3.5078988111
 H        -1.9405440116       -9.1795666638       -3.7525831839
 H        -0.8973355029       -8.3614155326       -5.0843754658
 H        -2.5316181096       -8.6905668366       -5.4457834961
 H        -1.6983876831       -7.5659477526       -2.0832582886
 H        -1.5512431201       -5.8395524941       -2.2907562470
 H        -0.2915848483       -6.9370369546       -2.9191637762
 H        -3.3163534202       -0.4268146135       -6.3425608467
 H        -2.4865791834       -1.7945142247       -7.2402525817
 H        -2.6834644045       -1.8093222590       -5.4588652698
 H        -4.8878527684       -2.7966132778       -4.1913562507
 H        -6.3699233870       -2.5185594713       -5.1699928569
 H        -5.4187153835       -1.1641652211       -4.6764696266
 H        -5.1164963688       -2.5856203944      -12.5423905667
 H        -3.7473140004       -2.6384087001      -13.5532794773
 H        -4.2652984050       -1.0344820953      -12.7166397055
 H        -2.9112136356       -4.5017117603      -11.8690476100
 H        -1.6347931732       -3.6383686592      -10.7050674613
 H        -1.6022419502       -3.4924563876      -12.4547965721
 H         2.1227643100       -1.1919228047      -11.5187906132
 H         2.7463459634        0.2715267260      -10.8428962972
 H         3.7692273925       -0.7270152048      -11.8916647600
 H         4.0594042882        1.7375469860      -12.6875344682
 H         2.5434848546        2.4587905503      -11.8045758935
 H         2.8246770580        2.5598716242      -13.5981734407
 H         6.0308782125       -0.9519286182      -18.4273963494
 H         6.7785537119       -2.3506303499      -17.5536766156
 H         7.7862713979       -0.9417243345      -17.8821142476
 H         8.1681975911       -1.0067323924      -15.3143256459
 H         7.0948173030       -2.2258324187      -14.8482878742
 H         7.1464033984       -0.5885361892      -14.0826785969
 H         6.5607154187        5.4778202272      -18.0061001973
 H         6.6878051062        5.3861472455      -16.1788673658
 H         6.4144240323        6.8620397450      -16.8706311220
 H         2.7960749659        6.1086631592      -16.0353829157
 H         3.6635984318        7.5109094234      -16.8025634385
 H         4.3647428231        6.6893634947      -15.2416784008
 H        -0.7173624412        1.3018985000      -19.8160775246
 H         0.8964110613        1.4046083116      -18.9201866515
 H         0.7450334969        2.0151191529      -20.5314876569
 H        -1.1522363917        3.7902598490      -20.8626725702
 H        -1.1375288856        5.1006930564      -19.7480828381
 H        -2.2516475078        3.7199748212      -19.4761475781
 H        -1.1191404877        5.5872170516      -11.5654450622
 H        -1.5607208838        4.3002029302      -12.6994224022
 H        -2.4605661216        5.8744495993      -12.4276972272
 H         0.0595538158        8.0172796626      -14.1701938343
 H        -1.0401387056        7.9052886810      -12.6090569278
 H        -1.6522247034        7.7333108168      -14.4247662183
 Na        1.5550446546        3.2231080866      -15.2829131034
 Na       -7.5780337954       -4.1713461277       -6.3688015473
