232

 C         1.6673114021        6.6381261173      -12.2163400233
 C         0.8698147540        5.6977560448      -13.0116294391
 O         1.3669303921        4.5970657127      -13.2867287316
 C        -0.5627345701        6.0031469118      -13.6445436651
 C        -0.5694050964        5.4217835921      -15.0570534182
 O         0.1978166416        5.9078619879      -15.8718079627
 C        -1.6522652188        4.1720426923      -15.3856449628
 C        -1.9082049195        3.8450476139      -16.8789377564
 C        -0.7236422668        2.9109768820      -17.4835422096
 O        -0.1965095323        2.1357500395      -16.7663014185
 C        -0.2114209136        3.2099477559      -18.9047198618
 C         1.1731445135        3.9969236723      -18.6759537461
 O         1.7274578894        3.6676303505      -17.6485466261
 C         1.7106820442        5.1121443024      -19.6603796069
 C         2.6677406867        6.0993151320      -18.8528889075
 C         4.1193650854        5.4720916658      -18.5950979859
 O         4.8445656500        5.1015992000      -19.5132873217
 C         4.6304693699        5.4290888064      -17.1456477901
 C         4.3933306910        3.9260380810      -16.5944761518
 O         3.6229388528        3.8442118122      -15.6006543857
 C         5.2057783489        2.7550739831      -17.2328747134
 C         4.9233336790        1.3136366742      -16.7226523056
 C         6.1523515326        0.6764104909      -15.9468917210
 O         7.0127207575        1.2671507407      -15.3288655954
 C         6.1885531187       -0.8577791301      -16.0882282243
 C         4.7756845629       -1.4746288222      -15.9545309049
 O         4.0489383100       -1.8750487121      -16.8369869716
 C         4.2481964850       -1.4992786649      -14.5148509011
 C         2.7208657277       -1.4285038864      -14.5102742230
 C         2.2480405688        0.0217274946      -14.3088066533
 O         1.9955871439        0.7736075324      -15.2510424416
 C         2.1820106052        0.6023851318      -12.8365279010
 C         0.6274788606        0.9947692624      -12.5591107090
 O         0.1032083129        1.9195783041      -13.2257595707
 C        -0.2416395424        0.3474276055      -11.4854579964
 C        -0.9513664929       -0.9685237901      -11.8958754933
 C        -2.3763604652       -1.1335687767      -11.2340789713
 O        -2.7864236101       -0.1697831952      -10.6643977020
 C        -3.2821406269       -2.3543199157      -11.4983934150
 C        -4.1453055301       -2.5262785134      -10.2693999667
 O        -3.9563461545       -3.4209554889       -9.5042476012
 C        -5.2503757978       -1.4566415610       -9.9680291633
 C        -5.1311845691       -0.8742594467       -8.3909707928
 C        -5.6786781876       -1.8415878912       -7.4136779206
 O        -6.8147047439       -2.2909709267       -7.5253146997
 C        -4.6282883448       -2.3265974987       -6.2970027734
 C        -4.3342464821       -3.9076381105       -6.6331294466
 O        -5.1917725259       -4.7390124752       -6.5672509554
 C        -2.7639647472       -4.3650048650       -6.9011323393
 C        -2.6948476075       -5.8072274527       -6.3428913672
 C        -2.3041237082       -5.8210956618       -4.8077190382
 O        -2.0486602625       -4.7849723426       -4.2594442013
 C        -2.3302036628       -7.1529942921       -4.0280765695
 C        -3.8110099116       -7.3935697762       -3.5630411096
 O        -4.2055538885       -8.3755462336       -2.9822718904
 C        -4.8204784495       -6.2454922266       -3.5512169862
 C        -6.0686851339       -6.5690144846       -2.8180309956
 C        -7.1651014271       -6.7405389864       -3.8948069351
 O        -7.4063049135       -5.7175049117       -4.5000921186
 C        -7.7990482787       -8.0785776688       -4.3564245636
 C        -7.5591054470       -7.9956118420       -5.8485222167
 O        -6.4944475858       -7.9698300374       -6.3691868618
 C        -8.7926705960       -8.2607715952       -6.7624186597
 C        -8.6478444298       -7.9463489473       -8.2598621224
 C        -8.4650646583       -6.3997239975       -8.6195348120
 O        -7.5688460014       -5.6824854827       -8.1269787697
 C        -9.6299340279       -5.6733133249       -9.3810879315
 C       -10.7379072399       -5.3781459998       -8.2403746201
 O       -10.2793481543       -5.2287987086       -7.1454817298
 C       -12.2353616506       -5.0954466159       -8.5387023798
 C       -12.6615599277       -3.6630304195       -8.1139244964
 C       -12.4758762565       -3.3885238501       -6.4886111532
 O       -12.8006822004       -4.2259579360       -5.7060515568
 C       -11.6782308802       -2.0894759677       -6.0202476042
 C       -10.4506975006       -2.7667052551       -5.3056852118
 O        -9.3243637815       -2.6033580480       -5.7680313567
 C       -10.5562554986       -3.6855229759       -4.0447669413
 C        -9.3588298204       -3.3232157103       -3.1094334785
 C        -9.9034602332       -3.2520315756       -1.6701913984
 O       -11.0547996340       -2.9913930189       -1.4849973062
 C        -8.8175909068       -3.4326748035       -0.4354588413
 C        -9.0662740757       -4.9089972437       -0.3598989218
 O        -8.3368301881       -5.7583334420       -0.8940745313
 C       -10.2376109485       -5.3617364320        0.4795258785
 C        -7.3858494752       -3.1001501416       -0.7401001517
 C        -9.4382738866       -2.6504813949        0.7293173673
 C       -11.1918715278       -1.1477623980       -7.1578393390
 C       -12.5770018503       -1.3792819568       -4.9662574149
 C        -9.2789696642       -4.2723680110       -9.9581549435
 C       -10.2732213775       -6.4711276184      -10.5565099152
 C        -6.9570400643       -9.2939539274       -3.6854432468
 C        -9.2569379431       -8.0367126813       -4.0050636143
 C        -1.7924283798       -8.3103410934       -4.8385531262
 C        -1.5562733819       -7.0233246594       -2.6348875007
 C        -3.4074359520       -1.4207797030       -6.1483002604
 C        -5.3085593595       -2.2919985474       -4.9528270118
 C        -4.0844707409       -2.1675942552      -12.8776832356
 C        -2.5140501515       -3.6120026019      -11.7343656643
 C         2.7669592772       -0.4169835974      -11.8890632706
 C         3.1859135688        1.9073301724      -12.8305637203
 C         6.7409782138       -0.9984330800      -17.6480993625
 C         7.3100454100       -1.5999477403      -15.2132006318
 C         6.0975816651        5.7683623770      -17.1028554553
 C         3.9197681970        6.3600011902      -16.1837142990
 C         0.2577225678        1.7914068694      -19.4279277413
 C        -1.2404276052        3.7987194420      -19.9297170545
 C        -1.6190913399        5.3346611796      -12.7768811252
 C        -0.9527330886        7.5990182902      -13.6065685236
 H         1.2358151749        6.5584073577      -11.2128668531
 H         1.6953496764        7.7308601741      -12.5290972212
 H         2.7451019594        6.3021870587      -12.1478260832
 H        -2.5706266844        4.3305763568      -14.7676561535
 H        -1.1840133438        3.3442623396      -14.9106429358
 H        -2.0000967375        4.7807578011      -17.5451476379
 H        -2.8488229785        3.2957139132      -17.0054082185
 H         1.0325894340        5.7984497577      -20.1332909375
 H         2.3379340063        4.6178573240      -20.4205876348
 H         2.1992396383        6.3454959965      -17.8624158708
 H         2.8079436603        7.0774682804      -19.3225857679
 H         6.2289615405        2.9697737810      -16.9873988328
 H         5.0949142690        2.7371845379      -18.3179202383
 H         4.7471333041        0.7395787701      -17.5505827369
 H         4.0296694416        1.3550886918      -16.0522167188
 H         4.5808661723       -0.6898448695      -13.9670740832
 H         4.6695978562       -2.3378558698      -14.0727291240
 H         2.2316477533       -2.0850303279      -13.7431594477
 H         2.4350615557       -1.8082659237      -15.5118534004
 H        -0.9906519213        1.1015188221      -11.2009892626
 H         0.3251485015        0.1908338438      -10.5234478524
 H        -0.4375438678       -1.9909512898      -11.8246927994
 H        -1.1481249530       -1.0149194212      -12.9619246796
 H        -6.2067843619       -1.9268481101      -10.0306585878
 H        -5.3236359466       -0.6495992626      -10.7101009317
 H        -5.5940547845        0.2335914550       -8.2281599509
 H        -4.0157494351       -0.7525495331       -8.2793257334
 H        -2.1385501447       -3.6712489208       -6.2816544176
 H        -2.3943700344       -4.3540472302       -7.9348771694
 H        -1.9833784116       -6.4355008113       -6.7811418797
 H        -3.6805444995       -6.3022629980       -6.2839954716
 H        -5.0071902421       -5.9028412448       -4.5237524251
 H        -4.2072034223       -5.3256374774       -3.2565222102
 H        -6.3535455216       -5.6923908676       -2.3220352056
 H        -5.9752387409       -7.3400360659       -2.1162761592
 H        -9.6090663456       -7.7345395851       -6.2219352397
 H        -9.0153445133       -9.3187952328       -6.5690130730
 H        -9.5923936075       -8.2023972556       -8.6392732515
 H        -7.8800038497       -8.5633662741       -8.6614422806
 H       -12.8119386790       -5.8864706535       -8.0451935915
 H       -12.4937879683       -5.2450825562       -9.6289363864
 H       -13.6830927727       -3.3861182155       -8.3764856587
 H       -12.0765562115       -2.9864093718       -8.7362895303
 H       -10.5687508937       -4.7402761179       -4.3221602387
 H       -11.4681362492       -3.5743427221       -3.4159386662
 H        -8.9173053075       -2.3800612559       -3.5154224295
 H        -8.6364088681       -4.1068506946       -3.2612323578
 H       -11.1103051062       -5.5555543922       -0.1495057634
 H       -10.4992488306       -4.5984113873        1.2116244014
 H       -10.0833593628       -6.3781581488        0.9292192377
 H        -7.4562814475       -2.0442010597       -1.0221291672
 H        -6.9485607542       -3.6284465687       -1.5524758556
 H        -6.9046366935       -3.0930780906        0.2785180763
 H        -9.1301315931       -3.1147003672        1.6693660907
 H       -10.4652221699       -2.5086768099        0.6040915820
 H        -9.0139335596       -1.6178451646        0.8109339296
 H       -10.3693325002       -0.6012971889       -6.8259370724
 H       -11.8254352968       -0.6210363458       -7.9464779513
 H       -10.5877414789       -1.9140379256       -7.6938608397
 H       -13.2934620728       -1.9659590650       -4.4788815435
 H       -13.2177399009       -0.7007273972       -5.5742229033
 H       -11.8843773013       -0.8102721781       -4.2758813344
 H        -8.6780805318       -3.6836929710       -9.1940838792
 H       -10.1341776178       -3.6108196862      -10.0359251541
 H        -8.7269020290       -4.4365088598      -10.9354816236
 H        -9.5249691755       -7.0086598012      -11.1354044588
 H       -10.7298041513       -5.7973784191      -11.1587731439
 H       -10.9155273542       -7.2590851185      -10.2343205061
 H        -5.8985319885       -9.1565564028       -3.6615883389
 H        -7.2097293356      -10.2345942713       -4.2255320997
 H        -7.2986248368       -9.3675276878       -2.6722807304
 H        -9.4016140434       -7.4973479001       -3.0786442176
 H        -9.6544835399       -9.0157233557       -3.9507192618
 H        -9.9184511279       -7.4362330862       -4.6715527424
 H        -1.9427121732       -9.0786181458       -4.1589914888
 H        -0.7288612444       -8.1038255202       -5.0241308355
 H        -2.3165848573       -8.4353930585       -5.7586379150
 H        -1.8289359461       -7.7042013174       -1.8307270320
 H        -1.6845146491       -5.9919828292       -2.2609203804
 H        -0.5447393717       -7.1078621784       -2.8884534619
 H        -3.6298693853       -0.4208187197       -5.9476276451
 H        -2.8069029976       -1.4775410054       -7.0209165157
 H        -2.8247690094       -1.8213613985       -5.3506581452
 H        -4.7121213093       -2.8984443960       -4.3391288678
 H        -6.3481128941       -2.6744753295       -4.8724838946
 H        -5.3011756863       -1.2926749426       -4.5450991956
 H        -4.6449982844       -3.0532769277      -13.1012711582
 H        -3.3163966941       -2.0986687768      -13.6832470166
 H        -4.7282705851       -1.2815029272      -12.8554642631
 H        -3.1264547792       -4.4953511820      -11.5170740975
 H        -1.6070852249       -3.5527971387      -11.1343278907
 H        -2.1560126779       -3.7151532586      -12.7855421724
 H         2.3286275316       -1.4384888060      -12.0565060223
 H         2.5800483450       -0.1779968132      -10.8711175489
 H         3.8615952375       -0.4211280107      -12.0308410940
 H         4.0510057597        1.7132328363      -13.5028088701
 H         3.4618136047        2.0464594745      -11.8303635554
 H         2.7225219717        2.7949095195      -13.1953750366
 H         6.0402839168       -0.4790159267      -18.2877187377
 H         6.9978908290       -1.9988364918      -17.9131642541
 H         7.6828430500       -0.4777034965      -17.7284587784
 H         8.3659749580       -1.5554968080      -15.6903043970
 H         7.0094031741       -2.7367382051      -15.1342960488
 H         7.5203531961       -1.1340249132      -14.2715522603
 H         6.7596426949        5.0619832343      -17.5837445627
 H         6.2973941830        5.8792009098      -16.0434510668
 H         6.4398772760        6.7581695308      -17.5414466197
 H         2.9954008196        6.0324740016      -15.9445947149
 H         3.9259191550        7.3893359762      -16.4818961386
 H         4.5497405974        6.2539716756      -15.3416418767
 H        -0.5010223692        1.3125946514      -19.9534403656
 H         0.7421855955        1.1394714883      -18.6062562349
 H         0.9761226397        1.8945139771      -20.2070176425
 H        -0.8289913883        3.9178569423      -20.9018574759
 H        -1.6156798348        4.8138653898      -19.6527928550
 H        -2.0810538769        3.1505120241      -20.1107951975
 H        -1.8404377308        5.7168486040      -11.7580597831
 H        -1.3465824262        4.3026591835      -12.6428120050
 H        -2.5950162774        5.4235450770      -13.1749380740
 H        -0.0859233526        8.1374762964      -14.0632413641
 H        -1.2493855244        7.8667798902      -12.6593178646
 H        -1.7272437848        7.7275230009      -14.3050558577
 Na        1.2903258549        3.0361167239      -15.1286100865
 Na       -7.7086699972       -4.2436200009       -6.3310430755
