232

 C         1.4185176353        6.6611107296      -12.3092726484
 C         0.8590763958        5.5961408056      -13.2282600970
 O         1.4961549017        4.6789778910      -13.6478323564
 C        -0.6169855810        5.8553966777      -13.6562270124
 C        -0.7569598386        5.2412256323      -15.1895064020
 O         0.0662843942        5.6036819369      -16.0033465092
 C        -1.9304000872        4.2662303472      -15.5202543855
 C        -1.9687971664        3.9235247150      -16.9813962948
 C        -0.8555325557        2.9347463529      -17.4774109387
 O        -0.3806508733        1.9792270552      -16.7779654674
 C        -0.1263495695        3.0641511529      -18.8434972239
 C         1.1254053671        3.9737687891      -18.5287681076
 O         1.7297584398        3.7928664722      -17.4617172979
 C         1.4894879682        5.0910108228      -19.4907909550
 C         2.4784432089        6.0225792111      -18.8665227023
 C         3.8866403436        5.3713704053      -18.5873054436
 O         4.6237846190        5.1287264240      -19.5151591157
 C         4.5620488543        5.2677977605      -17.1278379604
 C         4.4374086347        3.8143582751      -16.5449471454
 O         3.5747353611        3.4855340644      -15.7799963020
 C         5.4467566865        2.8098772972      -16.9488906355
 C         4.9511324582        1.4174286121      -16.5908671088
 C         6.0851636334        0.6754231438      -15.9158977334
 O         6.8626513099        1.1677777824      -15.1143509958
 C         6.2609099664       -0.8818532235      -16.2519033883
 C         4.8137147652       -1.3838186509      -15.9953345889
 O         3.9945583696       -1.4948268288      -16.8885691935
 C         4.3090918918       -1.5362671744      -14.4617212249
 C         2.7366892316       -1.6188882110      -14.3315955018
 C         2.2731842772       -0.1007046331      -14.1598272860
 O         2.1506163158        0.6925041758      -15.0670038338
 C         2.1625585381        0.5352595379      -12.6691728644
 C         0.6502709017        1.0270386840      -12.5693746768
 O         0.2265138941        1.9536004194      -13.1930534969
 C        -0.2585990408        0.3555168187      -11.4476702493
 C        -1.0442072652       -0.7956290481      -12.0297857425
 C        -2.3302638049       -1.1126449789      -11.2737702617
 O        -2.7236234683       -0.3274659223      -10.4094120513
 C        -3.3306083787       -2.3279226213      -11.5671760204
 C        -4.1128695402       -2.4125809302      -10.2397436723
 O        -3.6664906915       -3.1403424894       -9.3280767424
 C        -5.2928050848       -1.5269358416       -9.9031900985
 C        -5.1664132312       -0.9273846931       -8.5438378582
 C        -5.4894018862       -1.9023530668       -7.3227993914
 O        -6.6095962100       -2.3564435942       -7.3459212351
 C        -4.6042406314       -2.3636260964       -6.0989716854
 C        -4.3094007240       -3.9301180898       -6.4688149308
 O        -5.2773914228       -4.6631903091       -6.6866729534
 C        -2.8132133078       -4.2433657227       -6.6704842609
 C        -2.4638129608       -5.6439563212       -6.2811315668
 C        -2.3559738437       -5.7567162923       -4.6762181593
 O        -2.3975911426       -4.7648774011       -3.9794454873
 C        -2.2880495315       -7.1374559249       -4.0153050770
 C        -3.7462266510       -7.5530932731       -3.5487909098
 O        -4.0224206467       -8.6431656347       -3.1615732560
 C        -4.7181812520       -6.3550788376       -3.4833169970
 C        -6.2624873243       -6.4324644834       -3.0314171532
 C        -7.1242714645       -6.5674246163       -4.2375941948
 O        -7.5433712752       -5.5008539318       -4.6770645559
 C        -7.6854064858       -7.9620902035       -4.6534038102
 C        -7.5853386820       -8.2136723865       -6.1613044219
 O        -6.4917124896       -8.6383199210       -6.5453946302
 C        -8.7652632440       -8.3635894185       -7.0752769963
 C        -8.4849467794       -8.0358353296       -8.6007605740
 C        -8.4981567645       -6.4314710643       -8.6432303326
 O        -7.5925389360       -5.8747227087       -8.1269554183
 C        -9.5796823966       -5.5542095214       -9.2693850284
 C       -10.6668263524       -5.0843705477       -8.1603356342
 O       -10.3039952430       -4.9248796695       -6.9934575696
 C       -12.1581516686       -4.8766964135       -8.5624956344
 C       -12.7111919069       -3.5240728849       -8.0797098183
 C       -12.3959420955       -3.3805453084       -6.6121679839
 O       -12.9346093531       -4.0583393519       -5.7102487653
 C       -11.4547420568       -2.0570049932       -6.1690270495
 C       -10.2012227850       -2.5697983194       -5.3029482270
 O        -9.1029561716       -2.3642609792       -5.7912585153
 C       -10.5262491258       -3.3951673759       -4.1010984579
 C        -9.4433333316       -3.7385995441       -3.0212671047
 C        -9.8650692018       -3.1527479055       -1.6644973817
 O       -10.9983628833       -2.7719681445       -1.4484085382
 C        -8.9288951239       -3.2640910385       -0.3692977711
 C        -9.0657931701       -4.7977373779       -0.1772634274
 O        -8.3911256075       -5.4948755755       -0.9182171944
 C        -9.8632471287       -5.5739761584        0.8309630598
 C        -7.4099760555       -2.9518097078       -0.7860850716
 C        -9.3652640525       -2.2854304563        0.6994120347
 C       -11.0387819633       -1.0723796722       -7.2037408303
 C       -12.5453058895       -1.2775353799       -5.2338227344
 C        -8.8179391404       -4.2551408393       -9.8142010732
 C       -10.2787148965       -6.2873085053      -10.4378836727
 C        -7.0308596506       -9.1466185582       -3.8886809339
 C        -9.0610675440       -7.8883094839       -3.9673732873
 C        -1.9104326214       -8.2853815455       -4.9531246277
 C        -1.4177370934       -7.0980026717       -2.7180230391
 C        -3.3646951751       -1.4835667906       -5.9545043756
 C        -5.5228353754       -2.4622794711       -4.8282906431
 C        -4.1518188167       -1.9928290626      -12.8556324668
 C        -2.4628378339       -3.5788445532      -11.7410455286
 C         2.4455745917       -0.3970239068      -11.5163991182
 C         3.0332908033        1.7930957565      -12.6686236531
 C         6.6016862960       -1.1212919474      -17.7454973697
 C         7.2138990123       -1.6436912140      -15.3442660940
 C         6.1115893790        5.5660915613      -17.3072740928
 C         3.9592447754        6.3066313012      -16.0869084598
 C         0.3438171744        1.7361025387      -19.4732327347
 C        -0.9572735747        3.7104086991      -19.8966734374
 C        -1.6051651509        5.2300443997      -12.5805844949
 C        -0.8564056958        7.4155753846      -13.7931295029
 H         0.8285801902        7.0464163581      -11.4714556340
 H         1.7001384928        7.4703909980      -12.9354562398
 H         2.3509907405        6.3038939395      -11.9705326750
 H        -2.7947696820        4.8424008566      -15.1860396135
 H        -1.9350127724        3.3335342100      -14.8566393128
 H        -1.7753015966        4.7447085599      -17.6052193509
 H        -2.9818189409        3.5321045765      -17.2663440297
 H         0.5760360989        5.7029004287      -19.6609404390
 H         1.8985283133        4.7175390805      -20.4310391601
 H         2.0525709618        6.4093010519      -17.9526130605
 H         2.7452806296        6.9935890661      -19.3315101764
 H         6.4399069289        2.8781350377      -16.4263229463
 H         5.6133342762        2.9335989779      -18.0280030633
 H         4.5569750553        0.8421889536      -17.5233490062
 H         4.2047738614        1.5377340175      -15.8200753783
 H         4.7240004648       -0.8156573680      -13.6494141771
 H         4.6709858925       -2.5478391351      -14.0511547105
 H         2.5193200499       -2.1865147753      -13.4440915271
 H         2.2634408175       -2.0469255790      -15.2403971762
 H        -0.8631880293        1.1988986580      -11.0621918635
 H         0.2586267667       -0.0750223962      -10.6003082047
 H        -0.5230615254       -1.6827353482      -12.1810279073
 H        -1.3726347981       -0.6308550204      -13.0826518419
 H        -6.2545035220       -2.1231611421       -9.9813014806
 H        -5.4767303109       -0.7151287442      -10.6125423902
 H        -5.9214197735       -0.2427250389       -8.4502061814
 H        -4.2533026898       -0.3198790903       -8.5248679006
 H        -2.2370784766       -3.4586098331       -6.1885001687
 H        -2.7375467151       -4.1557398758       -7.7758698961
 H        -1.4986242362       -6.0710691834       -6.6733482995
 H        -3.3235119238       -6.2463472696       -6.5041670089
 H        -4.6065901438       -5.7655530142       -4.4498312150
 H        -4.1873330566       -5.7388092200       -2.8193179341
 H        -6.4172942832       -5.3902537558       -2.5010381572
 H        -6.5107728939       -7.1790779279       -2.2476636517
 H        -9.6838587986       -8.0585706465       -6.5568902390
 H        -8.9236450030       -9.4582794224       -6.9973709777
 H        -9.2334915561       -8.7731034557       -9.0429229778
 H        -7.4499929030       -8.2734439677       -8.9334316271
 H       -12.7223642018       -5.6812902712       -8.0856756249
 H       -12.3624762306       -4.9700530447       -9.5935082318
 H       -13.8067425199       -3.5211207438       -8.1506660375
 H       -12.2848410165       -2.6687948568       -8.6015407248
 H       -11.0278419005       -4.3060370168       -4.4963825270
 H       -11.3128149278       -2.9239530299       -3.4808537505
 H        -8.5480117977       -3.1732182668       -3.2583613913
 H        -9.2601685644       -4.8386123578       -3.0482616990
 H       -10.6607603514       -6.2319435790        0.4320950888
 H       -10.2077565705       -4.9924927760        1.6750612221
 H        -9.1554603645       -6.3021978388        1.1479503241
 H        -7.2873070649       -1.9488788482       -1.1438598480
 H        -7.2250792783       -3.5511797061       -1.6853485948
 H        -6.8250534505       -3.2217451660        0.0373247945
 H        -9.2206978542       -2.6024078838        1.7122292989
 H       -10.3989913328       -1.9609741714        0.4288879114
 H        -8.7798120454       -1.3893550726        0.6373468382
 H       -10.8320342384       -0.0991469377       -6.6921325715
 H       -11.8764074041       -1.0068902258       -7.8145874997
 H       -10.2019049934       -1.3209279605       -7.8269263481
 H       -12.8583107831       -1.9865538374       -4.4222416791
 H       -13.4631929685       -1.1171809490       -5.7533516940
 H       -12.0581061081       -0.4499775905       -4.8206516971
 H        -8.2958068956       -3.7698139557       -9.0241626367
 H        -9.4658023059       -3.4347108280      -10.1909429438
 H        -8.1492224155       -4.6345287394      -10.5677272780
 H        -9.5340950171       -6.6085870087      -11.1943282530
 H       -11.1389619831       -5.6788520464      -10.9632085290
 H       -10.5864583855       -7.3138131708      -10.0490119667
 H        -6.0687924775       -9.3593775291       -4.3020708043
 H        -7.6589018647      -10.0124823851       -4.0129871403
 H        -6.8331453855       -8.9368466575       -2.8474560239
 H        -8.9723117510       -8.0436888239       -2.8664936601
 H        -9.8993997129       -8.5723319909       -4.3118343985
 H        -9.4072773967       -6.8931371152       -4.0642554270
 H        -2.1337076032       -9.3151644334       -4.5463317820
 H        -0.8486675174       -8.0913841480       -5.1398980455
 H        -2.5462277154       -7.9983110542       -5.8194409954
 H        -1.3506700929       -8.1236323621       -2.3833575970
 H        -1.8498252465       -6.5453126551       -1.8890618923
 H        -0.3941300155       -6.6968053164       -2.9761324915
 H        -3.7537616644       -0.4319682315       -6.0112673599
 H        -2.7123667335       -1.5308449034       -6.8647282399
 H        -2.8358807867       -1.6586142248       -4.9966319453
 H        -4.9401068801       -2.8061645361       -3.9302954060
 H        -6.2110894303       -3.2582972697       -4.9887395979
 H        -6.1185837934       -1.5588559227       -4.6788883036
 H        -4.4097257801       -2.9267713516      -13.3763812379
 H        -3.6284846336       -1.2477978627      -13.4753421770
 H        -5.0619135946       -1.4169620761      -12.6204695556
 H        -3.0869709050       -4.4433992555      -11.9281788334
 H        -1.9892265358       -3.7895857177      -10.7843393667
 H        -1.6987123478       -3.5121973555      -12.4877037733
 H         1.7102504821       -1.1367339264      -11.3996442909
 H         2.6223249366        0.1394952582      -10.5689262493
 H         3.3872249387       -0.8958453100      -11.7731198807
 H         3.7845642082        1.6679341225      -13.4273955707
 H         3.5362147998        1.7272807704      -11.7026135090
 H         2.6118613254        2.7806330650      -12.8367518080
 H         5.7720339676       -0.8014570878      -18.3000647804
 H         6.9742147086       -2.1852193324      -17.9263466418
 H         7.4705593414       -0.5810050223      -18.0797966146
 H         8.1109132920       -1.2093376915      -15.1408213493
 H         7.3873596856       -2.6315999795      -15.5902151502
 H         6.6629921256       -1.6021736559      -14.3711047295
 H         6.6091427745        5.0298320157      -18.1047549102
 H         6.6490378586        5.5490216348      -16.3574574082
 H         6.2174637370        6.5123646249      -17.7609460168
 H         2.7759228791        6.2176685781      -16.0602666284
 H         4.2987947785        7.2831571423      -16.4255804489
 H         4.3158574699        6.1748476794      -15.0342697233
 H        -0.4804178421        1.0198913944      -19.6132750522
 H         1.0006141465        1.3434979760      -18.8149679838
 H         0.7131567487        1.7695275994      -20.5414029574
 H        -0.4523726856        3.9589906498      -20.8358925695
 H        -1.4854720941        4.5554298208      -19.5455041463
 H        -1.7283245781        3.0348952602      -20.2555309114
 H        -1.7563033441        5.7187711956      -11.6528134957
 H        -1.3766044623        4.2089014947      -12.2598892055
 H        -2.6676444140        5.2475116186      -13.0444957821
 H        -0.4211775501        7.6705514086      -14.6935238204
 H        -0.5818478808        8.0128067456      -12.9155528652
 H        -1.9781474042        7.5172756747      -13.8655219369
 Na        1.2228480279        2.8374576054      -15.2254393095
 Na       -7.8384241388       -4.3283801290       -6.4717721362
