232

 C         1.4859681089        6.5912646634      -12.2803535747
 C         0.8815891592        5.6350493321      -13.3462815991
 O         1.5617511838        4.7085226400      -13.7305282617
 C        -0.6810693839        5.8248682465      -13.8228135000
 C        -0.8926178792        5.1365257660      -15.1352818875
 O        -0.0907855811        5.4325486035      -16.0005603073
 C        -2.0856680276        4.2226002445      -15.6221609237
 C        -1.8888597966        3.9351989318      -17.1643209967
 C        -0.8827581803        2.8636992110      -17.4776050989
 O        -0.6461818903        1.9650687296      -16.7074382554
 C        -0.1494307840        3.0605640675      -18.8350023957
 C         1.1095188488        4.0059303108      -18.4498907370
 O         1.6975579519        3.8140203069      -17.4064775444
 C         1.5316390859        5.0954472630      -19.3776665465
 C         2.5126216449        6.1096686943      -18.7186070614
 C         3.8799298809        5.4848376409      -18.5325398059
 O         4.4666921637        4.9445635136      -19.4798195229
 C         4.5032738317        5.3182902654      -17.1633321307
 C         4.3692513480        3.7905609504      -16.6277047475
 O         3.5513185388        3.5362724925      -15.7252181033
 C         5.5454695297        2.8233699028      -16.9475529306
 C         5.1450227497        1.3933085919      -16.6103787478
 C         6.1945417154        0.5708277295      -15.9218482395
 O         6.8218165732        1.0129010216      -14.9771953502
 C         6.1369693014       -0.9690938719      -16.1971691760
 C         4.6667566738       -1.3733009510      -15.9988297037
 O         3.9268019601       -1.3863354526      -16.9425350909
 C         4.3426574535       -1.6290478477      -14.5772344039
 C         2.8635195269       -1.5829006436      -14.2296172339
 C         2.3684955753       -0.1239931473      -13.9341282435
 O         2.1222724123        0.5082075766      -14.9823830695
 C         2.1386937438        0.5045754951      -12.5539046089
 C         0.6166829348        1.0661663420      -12.4970551317
 O         0.2164849319        1.9599152380      -13.2464673514
 C        -0.3708047394        0.4258890236      -11.5307832326
 C        -1.1472498631       -0.7499464428      -12.1734739016
 C        -2.3258509562       -1.0206288713      -11.2208918670
 O        -2.6180294431       -0.2914353193      -10.2975806524
 C        -3.2594989253       -2.2859882134      -11.5195790070
 C        -4.0575713046       -2.4686266502      -10.2078002352
 O        -3.5574714995       -3.0825420393       -9.2834952238
 C        -5.3179729760       -1.5072871767       -9.9025218026
 C        -5.1877836651       -0.9715920103       -8.3925208823
 C        -5.5894600260       -1.9816065479       -7.3372639597
 O        -6.6772280058       -2.4675587401       -7.4010969956
 C        -4.7075132950       -2.3333738871       -6.1006133599
 C        -4.2891962169       -3.8601051760       -6.5034225726
 O        -5.1350869012       -4.7158083614       -6.6341560170
 C        -2.8146686292       -4.2730423052       -6.6448089168
 C        -2.3916392995       -5.6640673155       -6.1501570126
 C        -2.3460776184       -5.7609729106       -4.6347363819
 O        -2.4755935603       -4.7755846266       -3.9511513768
 C        -2.2779895721       -7.1932134189       -4.0504073368
 C        -3.7804572403       -7.5372035956       -3.4589580587
 O        -4.0532535734       -8.6977302483       -3.2646287566
 C        -4.6128164286       -6.2355669102       -3.2912152974
 C        -6.1828910946       -6.4857739599       -3.0280246700
 C        -7.1123551351       -6.5389854868       -4.2820310136
 O        -7.6051437072       -5.5387906912       -4.7470805591
 C        -7.6713975429       -7.9398825949       -4.6519814661
 C        -7.5872830831       -8.4076742454       -6.2729052217
 O        -6.5434350462       -8.8103032180       -6.6679455247
 C        -8.9083572992       -8.4460370307       -7.2698696926
 C        -8.4989441182       -8.0017296548       -8.6905524001
 C        -8.4055028079       -6.4681676268       -8.6714200561
 O        -7.4313102688       -6.0124723143       -7.9958227974
 C        -9.5440319133       -5.5518776530       -9.2443476558
 C       -10.5684538500       -5.0121929794       -8.1738241598
 O       -10.2078979017       -4.6980718563       -7.0661402612
 C       -12.0288313380       -4.8652523593       -8.5528602208
 C       -12.6418669297       -3.4890472341       -8.1003779203
 C       -12.3989516961       -3.2411167518       -6.5911209139
 O       -12.8869156709       -4.0030455276       -5.7916059037
 C       -11.5718019342       -1.9614817606       -6.1322135874
 C       -10.1698958275       -2.6356159235       -5.3570566381
 O        -9.0495572491       -2.2933804192       -5.7313051400
 C       -10.5833421097       -3.3289940316       -4.0882212981
 C        -9.4938853613       -3.6910762919       -2.9797372525
 C        -9.9521095619       -3.0918129210       -1.6550787003
 O       -10.9959563210       -2.5809126800       -1.4422387022
 C        -8.9420145918       -3.2622794684       -0.4319709367
 C        -8.8339120022       -4.8398515473       -0.0462184686
 O        -8.3824422992       -5.5208524986       -1.0005844814
 C        -9.6813634222       -5.4023944227        1.1025059935
 C        -7.4597274501       -2.8822845266       -0.8359891547
 C        -9.3835835575       -2.3207554373        0.7069449240
 C       -11.0144707590       -1.0483766213       -7.2945456101
 C       -12.4194587561       -1.1861331138       -5.2326081195
 C        -8.8335148881       -4.2466063013       -9.7438358293
 C       -10.3110894637       -6.2370579748      -10.4122420262
 C        -7.0299236869       -9.1735544505       -3.9806303823
 C        -9.2021904705       -7.8996497734       -4.0833766105
 C        -1.8431588057       -8.3241210668       -5.0335681672
 C        -1.2699817483       -7.1693967027       -2.7845222325
 C        -3.4873469991       -1.3902093762       -5.8481930938
 C        -5.4897601634       -2.3135182950       -4.8101683178
 C        -4.1879513512       -1.9231185604      -12.7461637124
 C        -2.4173615720       -3.5089185631      -11.7728909491
 C         2.4831132810       -0.5575468539      -11.4801060479
 C         3.0167771040        1.8133993094      -12.4951973809
 C         6.4291645643       -1.1931986915      -17.7689727352
 C         7.2454236393       -1.5652389385      -15.2715177899
 C         5.9560460669        5.5424528816      -17.3542733658
 C         3.9768088912        6.2619833782      -16.0911987643
 C         0.4188081159        1.6980853294      -19.3091391382
 C        -1.1105080269        3.7021008664      -19.9533773152
 C        -1.4298426366        5.1792149080      -12.6935451288
 C        -1.0321133407        7.3040388507      -14.0127811484
 H         0.7422233770        6.9814166564      -11.6698309575
 H         2.0779329608        7.4132279296      -12.6525230500
 H         2.1447136270        6.0225686594      -11.6685717751
 H        -3.0410699283        4.6954925292      -15.3507376675
 H        -2.0365918881        3.2907760716      -15.0910401104
 H        -1.6900587403        4.7464120537      -17.8169817570
 H        -2.8021683145        3.5138558601      -17.5155697958
 H         0.6290843848        5.6040508921      -19.7502554530
 H         2.0952063130        4.7055742896      -20.1901647358
 H         2.1651563789        6.6359317308      -17.8071153618
 H         2.7878233693        7.0217292474      -19.2550514839
 H         6.3324150966        3.0015681444      -16.2007722597
 H         6.0018657149        2.9618361272      -17.9581559579
 H         4.8258293956        0.8591944603      -17.5157985261
 H         4.3435487724        1.4527335923      -15.8510715636
 H         5.0277077052       -1.0735118383      -13.8226272536
 H         4.6134460405       -2.6990425087      -14.3508151319
 H         2.6501409051       -2.3405172217      -13.5145672350
 H         2.3162894181       -1.6932494358      -15.1983230040
 H        -1.0383645610        1.2239314874      -11.3466163555
 H         0.0860030628        0.0668781335      -10.5918961920
 H        -0.6205364797       -1.6941110361      -12.3959359348
 H        -1.5311757204       -0.5277633770      -13.1276044917
 H        -6.2161199323       -2.1282680966      -10.0154510429
 H        -5.5686691223       -0.6625454760      -10.5927330686
 H        -5.5964932257       -0.0131663505       -8.2030915067
 H        -4.1951347864       -0.7535090674       -8.2453875945
 H        -2.3037227407       -3.5795178857       -5.9555398878
 H        -2.4940378710       -4.1161665175       -7.6399669555
 H        -1.3399154266       -5.8584746393       -6.4043360589
 H        -3.0505332319       -6.5129742274       -6.4667700764
 H        -4.4389664947       -5.6621606444       -4.2717832713
 H        -4.1147234804       -5.6096149800       -2.4686339780
 H        -6.4734714102       -5.5502839528       -2.4141060974
 H        -6.3399995602       -7.2793869814       -2.3402136948
 H        -9.7835210364       -7.8137575233       -6.7826861174
 H        -9.4033894187       -9.3718536045       -7.2094091025
 H        -9.2885730941       -8.5590914182       -9.2668336360
 H        -7.4848713984       -8.3099828668       -9.0872706849
 H       -12.5978050557       -5.7053183047       -8.1776459973
 H       -12.1962235261       -4.8614867764       -9.6337040157
 H       -13.7711330645       -3.5208781291       -8.3114809862
 H       -12.1381519122       -2.6659829310       -8.6202583759
 H       -11.0014814486       -4.2489797472       -4.4229479146
 H       -11.4382993819       -2.8526885718       -3.5147263186
 H        -8.4768506155       -3.3231838903       -3.2157565820
 H        -9.5163711510       -4.7354767059       -2.9177599060
 H       -10.5146349570       -6.0120725719        0.7059798928
 H       -10.0205072970       -4.6594941674        1.7610536361
 H        -9.1224294923       -6.1581860502        1.6440226421
 H        -7.4242580197       -1.9544054289       -1.3080824778
 H        -7.1885729340       -3.5764500613       -1.6192620847
 H        -6.8551548277       -3.0528573349        0.0812273903
 H        -9.0399508146       -2.7010259332        1.6631339676
 H       -10.4456517774       -2.3140509370        0.6204734704
 H        -9.0467151575       -1.2341702160        0.6838092483
 H       -10.5967012505       -0.1920873146       -6.8313363509
 H       -11.8023154333       -0.7974927989       -8.0514138280
 H       -10.2160419719       -1.5984877107       -7.8558206509
 H       -12.7853916410       -1.6450520925       -4.3713686319
 H       -13.3060950302       -1.0438639393       -5.8693666992
 H       -11.8786577173       -0.2664770094       -5.0134240184
 H        -8.5753577785       -3.6320452908       -8.9200550975
 H        -9.4401916753       -3.6520083831      -10.3325382431
 H        -7.9700266403       -4.5541728552      -10.3201389960
 H        -9.5931530361       -6.6858726205      -11.1530300275
 H       -10.8874981590       -5.4714037086      -10.9282076953
 H       -10.9134040535       -7.1358074998      -10.0651330684
 H        -6.1253662233       -9.3228191748       -4.5043494715
 H        -7.6672033572      -10.1276677717       -4.0670653573
 H        -6.6813866424       -9.0177920028       -2.9432039798
 H        -9.3501168336       -8.2460096013       -3.0447728360
 H        -9.8215617037       -8.5963556565       -4.6912136196
 H        -9.6373096808       -6.9058981474       -4.2376312932
 H        -1.8003941183       -9.2710195215       -4.5110772309
 H        -0.8032627870       -7.9718802629       -5.3114211790
 H        -2.5905363639       -8.3333177941       -5.8292406416
 H        -1.0717287043       -8.1659487334       -2.4301329458
 H        -1.8134497198       -6.6669683332       -1.9235309039
 H        -0.3683903210       -6.6149998234       -3.0133850200
 H        -3.8989173314       -0.4625248041       -5.3701521517
 H        -3.0385315563       -0.9787245687       -6.8217474941
 H        -2.7359840252       -1.8531149637       -5.1738392664
 H        -4.8598626374       -2.4694270106       -3.9408184964
 H        -6.2499223048       -3.1333818485       -4.7645240796
 H        -6.0459698086       -1.3624090319       -4.8178156370
 H        -4.5865755830       -2.8509728698      -13.1134846980
 H        -3.8006895641       -1.1827215629      -13.4824916243
 H        -5.0473317703       -1.3026488312      -12.3769453902
 H        -3.0205575375       -4.2661478297      -12.2725905822
 H        -2.0185675001       -4.0206563324      -10.8929126704
 H        -1.5738921785       -3.2544855114      -12.5035881692
 H         1.8464211813       -1.4436404259      -11.4130992510
 H         2.4579794083       -0.0548961338      -10.5821055382
 H         3.5557334038       -0.8743659069      -11.6410160866
 H         3.9056286647        1.6161053802      -13.2225215557
 H         3.4012847579        1.9332891484      -11.5051982744
 H         2.5604437021        2.7341233844      -12.8866858649
 H         5.5859842652       -0.8875578294      -18.3925513268
 H         6.7720940896       -2.2704288931      -17.8666900766
 H         7.3576070172       -0.7237036981      -18.0944122119
 H         8.0121175087       -0.8118575149      -15.1485796448
 H         7.8267041591       -2.4830907435      -15.6162290292
 H         6.9099197355       -1.8249203617      -14.3300586380
 H         6.2613861277        5.2078013742      -18.3287449132
 H         6.5841219890        5.2068845676      -16.5790577121
 H         6.0694808710        6.6195881546      -17.6388119453
 H         2.9723429627        5.9043697438      -15.8365265884
 H         4.0542233320        7.3265495430      -16.4151757282
 H         4.6053443748        6.1999082419      -15.1015518316
 H        -0.3014706062        0.9169474197      -19.3174533176
 H         1.2025949722        1.3997351892      -18.4975391516
 H         0.7623636547        1.6635735094      -20.3664726444
 H        -0.8093793963        3.5782446749      -20.9776726114
 H        -1.4333115230        4.7624619469      -19.7899834427
 H        -2.0613943507        3.1968343992      -19.9307518046
 H        -1.0959585373        5.5625992449      -11.7221640767
 H        -1.2446126041        4.1352641562      -12.5415484041
 H        -2.5455661863        5.3745053661      -12.6717452891
 H        -0.4545274107        7.7425495759      -14.9311656227
 H        -0.8360270527        7.7738082342      -13.0447744557
 H        -2.1560647888        7.3771126026      -14.0879124238
 Na        1.3069137663        2.8114862771      -15.3220818826
 Na       -7.8505428272       -4.1728111386       -6.6693147212
