232

 C       -16.9293915076      -14.0521701280       -0.4187180177
 C       -16.2350944246      -14.0141206157       -1.7050287151
 O       -16.3735025692      -13.0656709552       -2.4734162260
 C       -15.3710054958      -15.2837907902       -2.0313310409
 C       -14.9658198830      -15.3120812979       -3.5408753784
 O       -15.7828505363      -14.9498837072       -4.3620128675
 C       -13.5250490109      -15.7279872274       -3.8826148109
 C       -13.0734087838      -15.7015663168       -5.3803651430
 C       -13.5287365767      -14.2460193201       -5.9817637035
 O       -13.5911227085      -13.2581950131       -5.1944933300
 C       -14.0915888709      -14.1418433512       -7.4040927357
 C       -14.9973104003      -12.8176304464       -7.3847467899
 O       -16.1707874470      -12.9376375329       -7.2259428386
 C       -14.3973056212      -11.3602416101       -7.4896958554
 C       -15.5267751172      -10.3811831111       -7.6110836453
 C       -15.7751300943       -9.4923339282       -6.3116662806
 O       -15.9425911345      -10.0184612324       -5.2140340555
 C       -16.0105771134       -7.9551932296       -6.3949510076
 C       -14.5670897194       -7.2457778596       -6.0673321803
 O       -13.6354078850       -7.9473827923       -5.9234419140
 C       -14.4726804714       -5.6699073592       -6.0221953338
 C       -13.3363997682       -5.0769929729       -6.8796200113
 C       -13.0090655604       -3.6433455987       -6.7514161211
 O       -13.2798407086       -3.0322577218       -5.7027447118
 C       -12.2278041053       -2.9351533280       -7.8419568965
 C       -10.6738986369       -3.1255185914       -7.4033786063
 O       -10.2940938039       -4.2830853087       -7.4294631711
 C        -9.6965364856       -2.0121534090       -7.1949509362
 C       -10.0826454557       -0.9655663910       -5.9589344976
 C       -10.0079459068        0.5572001676       -6.4036534093
 O       -10.1821661559        0.8737849960       -7.5770388735
 C        -9.3774277504        1.5910365172       -5.4741960698
 C        -7.9294167066        1.8898533328       -6.0354676461
 O        -6.9109915581        1.6875051169       -5.3390859613
 C        -7.7355562038        2.5479152859       -7.4382404572
 C        -6.3858289541        2.1348025418       -8.0758445448
 C        -5.8569300027        3.4005084488       -8.8503480081
 O        -5.4333153039        4.3863445774       -8.2225310124
 C        -5.5341357996        3.4002082096      -10.4118038538
 C        -4.2113601836        2.4963678673      -10.6290955445
 O        -4.4115098459        1.3906181274      -11.0948046168
 C        -2.8693301338        2.9506068867      -10.1412991245
 C        -2.0072029947        1.7406562038       -9.7470097724
 C        -0.4815249504        1.8804570528       -9.8681724736
 O        -0.1137125678        2.5277420454      -10.8590045150
 C         0.5111524302        1.4946718102       -8.7510574548
 C         1.9027873869        1.9233044602       -9.2501161569
 O         2.4448099656        1.1456633912      -10.0326656432
 C         2.5798156287        3.2386416732       -8.8212647006
 C         3.4981222945        3.8909054932       -9.8549719685
 C         2.8881583655        5.2373228953      -10.4848796270
 O         1.7881482174        5.7392026320      -10.1529964023
 C         3.7449004644        5.9382131494      -11.5868125593
 C         4.1631969425        5.0638808349      -12.8020857353
 O         5.3350161757        4.7414566080      -12.8518585355
 C         3.2267621970        4.7891374775      -13.9523785236
 C         3.6092337359        5.6184588074      -15.2691253643
 C         3.6096507476        4.7707098584      -16.4210847816
 O         4.0115654708        3.5846999866      -16.4361619740
 C         3.4239253306        5.4416827656      -17.8953342322
 C         4.9429377442        5.5475026750      -18.4289111502
 O         5.5441479585        4.6731800613      -19.0182250602
 C         5.8534014228        6.7132061092      -17.8000758007
 C         7.2870089600        6.1071829032      -17.6723822090
 C         7.4692070391        4.9511187296      -16.7428638856
 O         6.6448682733        4.9131776946      -15.8413547403
 C         8.5045830120        3.8989146172      -17.0185629830
 C         9.7822101055        4.1319423246      -16.1821933382
 O         9.6901073455        4.7748612620      -15.1583990680
 C        11.1885858335        3.5639126710      -16.6534042446
 C        12.1169851255        3.2355086568      -15.4711469288
 C        11.8091899961        1.9019131263      -14.8554603878
 O        11.2856320281        1.1028666111      -15.5414449887
 C        12.1918608679        1.3946648182      -13.4293465432
 C        11.1325318466        0.3029166225      -12.9132006873
 O        11.3287533093       -0.8284560893      -12.5873609315
 C         9.6591408965        0.8957493445      -12.8196520546
 C         8.5640691982       -0.2316827797      -12.8391859814
 C         7.2431375823        0.2908496548      -13.4589308249
 O         7.1228119973        1.4589141361      -13.6665988854
 C         5.8781551620       -0.6106898088      -13.4914755745
 C         5.0112558355       -0.1969563191      -14.7585980318
 O         4.4699921189        0.9067453673      -14.6729891848
 C         5.0382032827       -1.0279160192      -15.9246701251
 C         6.1711673369       -2.1349942021      -13.5154473363
 C         5.0434306839       -0.2762729726      -12.1182739189
 C        13.5741795614        0.7126542435      -13.4934718299
 C        12.1873335581        2.5922962003      -12.4091312603
 C         8.0081576210        2.4399720285      -16.3965721518
 C         8.7541923984        3.5572645713      -18.4717591466
 C         2.5370779698        4.5482446179      -18.9090264040
 C         2.8058734580        6.9104197434      -17.8861403999
 C         2.9213384475        7.1936039244      -12.1416005261
 C         5.0743943247        6.5329366055      -10.9278219518
 C        -0.1156494037        2.1251142367       -7.4545102873
 C         0.5017529526        0.0610011382       -8.6554755371
 C        -6.5105174938        2.8900129088      -11.5484114819
 C        -5.1825471660        4.9169526448      -10.8172096388
 C       -10.1737532710        3.0436310080       -5.6679728441
 C        -9.3783978814        1.3348150744       -3.9216878086
 C       -12.4180098388       -3.5545937929       -9.1655029274
 C       -12.6285005920       -1.4657111716       -7.7809067641
 C       -16.5438871589       -7.5936499392       -7.8191531365
 C       -17.1302554580       -7.4829576734       -5.3359267587
 C       -12.8068218237      -13.9883484307       -8.3227235643
 C       -15.0561178496      -15.3308845036       -7.7536950000
 C       -14.1112302760      -15.4107797781       -1.1545523511
 C       -16.2315132427      -16.5289107896       -1.9615745417
 H       -16.4370446068      -13.2949472190        0.2176340095
 H       -16.6147641230      -14.9563981427        0.0629659843
 H       -17.9806544782      -14.0635568648       -0.4830327437
 H       -13.2338725025      -16.7863684555       -3.5197008099
 H       -12.8839332990      -15.0792386388       -3.2774673879
 H       -13.5348880044      -16.4933994082       -6.0107370485
 H       -11.9962946499      -15.7576895585       -5.4073841467
 H       -13.6388757857      -11.2275040299       -8.3182091680
 H       -13.7669593426      -11.1439029598       -6.5890575908
 H       -16.4947490715      -10.9189677701       -7.6886860126
 H       -15.4156963802       -9.7891045593       -8.4558701932
 H       -14.4679997023       -5.4023609476       -5.0120293284
 H       -15.4532490309       -5.3108361487       -6.3978012132
 H       -13.5539063097       -5.3768299484       -7.8846586948
 H       -12.4286209827       -5.6197592158       -6.6517886262
 H        -9.5281276259       -1.5295875569       -8.1285583352
 H        -8.7275357390       -2.5571085679       -6.9939336560
 H        -9.4696836736       -1.1899178159       -5.0570195264
 H       -11.0678094891       -1.2852525992       -5.7128881966
 H        -7.6790900552        3.6269749295       -7.2116288170
 H        -8.5068232160        2.4541837101       -8.2283473485
 H        -6.5329303423        1.2353253326       -8.7482239660
 H        -5.6055907091        1.8357647444       -7.3840260330
 H        -2.8990430308        3.8153657789       -9.3893126456
 H        -2.4852322693        3.4658741572      -10.9482271684
 H        -2.2625973361        1.0864233760      -10.5829525539
 H        -2.4543733833        1.2897853551       -8.8186087645
 H         3.1907367307        3.1258576418       -7.8834077947
 H         1.6322026784        3.8519305769       -8.5307190433
 H         3.7519200499        3.2119355911      -10.6364205483
 H         4.5270978592        4.1740593390       -9.4611736374
 H         2.2895275170        5.1951728919      -13.5699145504
 H         3.1311550611        3.7112699585      -14.2137959278
 H         4.5776806052        6.0745955469      -15.1930720161
 H         2.9832258710        6.4744448061      -15.3268424783
 H         5.6777257188        7.1625374209      -16.8058563711
 H         5.9697700649        7.6681342813      -18.3673555141
 H         8.0389887885        6.7512410887      -17.3084957877
 H         7.5988045066        5.7393919820      -18.6937844580
 H        11.5571656086        4.4036690379      -17.2830798747
 H        11.0349237171        2.5996556045      -17.0926806456
 H        11.9608042241        4.0479827977      -14.7795165408
 H        13.0657509624        3.2207411703      -15.8966148201
 H         9.5030213246        1.5792601158      -13.6902185495
 H         9.5844430715        1.5883888890      -11.9843649649
 H         8.4523643404       -0.5959816549      -11.8509127321
 H         8.9526091647       -1.0582396569      -13.4913044017
 H         5.7470142179       -0.6307517873      -16.5789237292
 H         4.1450742957       -0.8965347462      -16.3853770180
 H         5.2083554256       -2.0805872379      -15.6470970435
 H         5.1636586922       -2.6206300864      -13.4355579082
 H         6.8964977356       -2.3347774300      -12.7148583303
 H         6.7439810231       -2.5331759044      -14.3642210354
 H         5.5614764832        0.3777526668      -11.4525644924
 H         4.8674561345       -1.0381756260      -11.5333084605
 H         4.1115532499        0.2294090114      -12.3050807941
 H        14.4272777269        1.4147398808      -13.6526606369
 H        13.5750564930       -0.0541766666      -14.2925577899
 H        13.9025937296        0.1465169595      -12.6348088602
 H        12.9594632414        3.3806620344      -12.5920817528
 H        12.3411561462        2.1476699918      -11.3758144801
 H        11.2963091396        3.2002567392      -12.5507759552
 H         7.9629544728        2.6344540764      -15.3721195033
 H         8.6124028158        1.5665843815      -16.7755079728
 H         7.0974367940        2.4491350768      -16.9572054690
 H         9.1975231334        4.4621932246      -19.0506086140
 H         7.8274010162        3.1352722456      -18.9026318437
 H         9.5162874328        2.8821315546      -18.4873801261
 H         1.4542194685        4.7786523350      -18.7946837747
 H         2.6889671855        3.4124298892      -18.6839063683
 H         2.8790678019        4.6297200046      -19.9308687300
 H         2.9811692205        7.4859991353      -18.8012765317
 H         3.2379134380        7.5540308565      -17.1227770126
 H         1.6828800003        6.8160243439      -17.8433913806
 H         3.3255194280        8.1001966121      -11.7440194227
 H         1.8301953926        7.0986936593      -11.8307113293
 H         3.0682167534        7.1804266717      -13.1884478247
 H         5.6141927250        7.0845091009      -11.6155557870
 H         5.6324404495        5.6843078626      -10.5043832815
 H         4.7775291203        7.1133522912      -10.0194980236
 H         0.2915516809        2.9826274559       -7.1343324497
 H         0.0552871904        1.4421271770       -6.6738742111
 H        -1.1789744052        2.3693743280       -7.6435632770
 H        -0.4345705345       -0.3738509022       -8.3745963883
 H         1.0661032846       -0.3213862277       -7.7622701968
 H         0.7310413196       -0.3767406474       -9.6439116781
 H        -6.4568174659        1.8388709044      -11.6215516054
 H        -6.2495771250        3.2098878826      -12.5647270158
 H        -7.5598441423        3.1103420588      -11.2861280773
 H        -5.9788393147        5.4121187384      -11.3152921034
 H        -4.1943834730        5.0282148089      -11.3396998331
 H        -5.0505337490        5.3686530030       -9.8321168410
 H       -11.1605496292        2.9485929097       -5.1650321508
 H       -10.3743205960        3.2360008383       -6.7231384359
 H        -9.5926293804        3.8387003594       -5.3826558645
 H        -9.0256465793        2.2009498359       -3.3947267908
 H        -8.6961747230        0.5697902121       -3.5274026957
 H       -10.4217186927        1.0467246942       -3.5813504462
 H       -11.6997022768       -3.0118748554       -9.8162774234
 H       -13.4697693374       -3.3234457827       -9.5745508758
 H       -12.1537516356       -4.6531129404       -9.2821984957
 H       -13.7140683003       -1.3673604129       -7.9546316837
 H       -12.1148157813       -0.8385387457       -8.5482686216
 H       -12.4313745749       -1.0426532549       -6.8504362587
 H       -15.7794591502       -7.7081493788       -8.4826927633
 H       -16.8750068995       -6.5541691927       -7.7782624159
 H       -17.2781820542       -8.3663464508       -7.9652860568
 H       -16.9019956861       -7.7352851792       -4.3142966439
 H       -18.0982490033       -7.6581316289       -5.7037945493
 H       -17.1741543372       -6.3866442428       -5.1138514947
 H       -12.1444342880      -13.2723741882       -7.8068724294
 H       -12.9697559585      -13.8268487947       -9.3772941825
 H       -12.3941594125      -15.0248692797       -8.2014136629
 H       -15.5520491001      -15.6856400442       -6.8949135819
 H       -14.5030951529      -16.0818994088       -8.1765682115
 H       -15.6214535688      -14.9710125906       -8.6565867225
 H       -13.4394924845      -14.5706985592       -1.4113906380
 H       -13.7079819254      -16.4549252350       -1.2223401310
 H       -14.3185427367      -15.2991622622       -0.1723329436
 H       -17.2382295683      -16.2644791397       -2.3660418205
 H       -16.2888870936      -16.9240075482       -0.9119110030
 H       -15.8444563338      -17.3544698235       -2.5733664376
 Na      -15.9752272999      -12.6581646244       -4.6708088232
 Na        5.8004611220        3.1423509780      -14.6071634550
