232

 C       -22.6476448225       -6.3091104067       -1.9492174142
 C       -21.8518764680       -5.2168544345       -2.5329864061
 O       -20.7496772053       -4.9837854974       -2.0263066219
 C       -22.4785055512       -4.2704404581       -3.6001711262
 C       -21.3146207205       -3.9445117578       -4.6827296734
 O       -20.5121808877       -3.1343727630       -4.3888964612
 C       -21.2875128861       -4.8567756842       -5.9817898097
 C       -20.0016999192       -5.7945406102       -6.1455950205
 C       -18.8053752599       -5.4274886857       -5.1742718487
 O       -18.5563148684       -5.9845458906       -4.0969036576
 C       -17.8291583942       -4.3643224460       -5.7703601847
 C       -17.1937898300       -3.5896499599       -4.4973745015
 O       -17.6592157747       -2.5219030469       -4.3172785695
 C       -15.9351120479       -4.1520291227       -3.8043323808
 C       -15.4199807214       -3.1865859090       -2.7849869718
 C       -16.1670491831       -3.1806750458       -1.5232020840
 O       -17.3738709620       -3.2533498061       -1.4226752993
 C       -15.3938757278       -3.0178024077       -0.1629362605
 C       -13.8932858627       -3.6037558930       -0.0625179397
 O       -12.9610769011       -2.9623542602        0.2796814763
 C       -13.8241408525       -5.1104142059       -0.4124009327
 C       -12.3442216520       -5.4162025700       -0.6969598976
 C       -12.0150887303       -6.0200216503       -2.1202586888
 O       -12.8070814117       -5.8318292890       -3.0521627858
 C       -10.6722908879       -6.8443344049       -2.3110722748
 C        -9.3669583219       -6.0010811833       -2.0355739520
 O        -9.3553650627       -5.2585600450       -1.0517633944
 C        -8.2155707472       -6.2681881522       -2.9786634517
 C        -6.9771308288       -5.3946013806       -2.6820607122
 C        -6.7679014634       -4.2177832469       -3.6822589045
 O        -6.9469585755       -4.4962083102       -4.8586498107
 C        -6.0839086725       -2.9093645373       -3.2752170797
 C        -4.6677278980       -3.4015336256       -3.6042403899
 O        -3.9798998593       -3.8458345285       -2.7204775700
 C        -4.2938421628       -3.4879233978       -5.0480896280
 C        -2.9130598704       -4.1546208886       -5.2386656601
 C        -1.7635289273       -3.1545748213       -5.2934167625
 O        -2.0410759107       -1.9948587601       -5.5278083314
 C        -0.2221664000       -3.5749409812       -4.9436297569
 C         0.4181111260       -4.0658614603       -6.2500661197
 O         0.5025054815       -5.2407520535       -6.5228163478
 C         0.9843972084       -3.0336147367       -7.2485147662
 C         0.4052564283       -3.2162616205       -8.6716355234
 C         1.4194041154       -2.9551865211       -9.8256652393
 O         2.6015933317       -2.7623913380       -9.5708954124
 C         0.7782069946       -3.0828257318      -11.2237647263
 C         1.7423102110       -1.9377064472      -12.1240466292
 O         1.3147060792       -0.9348593158      -12.7002717643
 C         3.2503129012       -2.3671367866      -12.2326497824
 C         4.0904652779       -1.0520916923      -12.6397315824
 C         5.4399648371       -1.4721677915      -13.1586347352
 O         6.3520627481       -1.7844845241      -12.3507577326
 C         5.6482608520       -2.0488636370      -14.6663609539
 C         6.8959268978       -1.4276519755      -15.2474006131
 O         6.8302995723       -0.6643294789      -16.2354229641
 C         8.2008827424       -1.7693097234      -14.4382473736
 C         9.4090403531       -0.8491172077      -14.4852495432
 C         8.9913749271        0.5517528582      -15.0729267763
 O         9.2910107231        0.8026349611      -16.2173947022
 C         8.5551313527        1.7302327948      -14.0799982002
 C         7.2579513965        2.4984203009      -14.4988358849
 O         6.2237799467        2.2253480533      -13.9714485747
 C         7.2165670735        3.3451218385      -15.8106453510
 C         5.7507807342        3.8391659310      -16.0453129111
 C         4.9787438043        3.0465505835      -17.2577852259
 O         5.4359346748        2.1160549737      -17.8658826876
 C         3.6151592897        3.6531851987      -17.6400054901
 C         3.8618585745        4.8301726135      -18.6341054506
 O         3.6711081247        6.0202288056      -18.4079277548
 C         3.9881945543        4.4979758144      -20.1587004696
 C         4.7921505368        5.4946445144      -20.9128836784
 C         5.3705795376        4.8646574128      -22.2800138849
 O         4.7479782230        4.0071127630      -22.8390553075
 C         6.9088936320        5.1642501235      -22.6505709414
 C         7.8702397514        3.8855562679      -22.2502945526
 O         7.6549818765        2.7198133647      -22.3450559618
 C         9.1888902443        4.4391355309      -21.4724976174
 C        10.0322462215        3.2891447057      -20.9845811660
 C         9.2024972545        2.1786856979      -20.3193809865
 O         8.3993379266        2.4499009476      -19.4122060245
 C         9.5746096161        0.7317504993      -20.6704498479
 C         8.2823507938       -0.1339426290      -21.0257592674
 O         7.4964830313       -0.4958144198      -20.2106398269
 C         7.9392828512       -0.4200483007      -22.5097963079
 C        10.7263303243        0.5728684422      -21.6829561110
 C        10.0872437808        0.0742136349      -19.3153742580
 C         6.8841109609        5.1951781907      -24.1763295790
 C         7.5475852727        6.3700381676      -22.2024154049
 C         2.7320756283        2.5726751883      -18.2381849838
 C         2.8304898244        4.2222597475      -16.3612407873
 C         8.4052845219        1.1861143230      -12.5938168781
 C         9.7337350214        2.8336150057      -14.3362611456
 C         5.8342077550       -3.6099373552      -14.4259941012
 C         4.3799960288       -1.7674021103      -15.5801823889
 C         0.8933227879       -4.4795759295      -11.8183851067
 C        -0.7283369153       -2.6429697758      -11.2385767444
 C         0.5076411315       -2.1990638671       -4.5369791625
 C        -0.2043609500       -4.6354586286       -3.8282318183
 C        -6.4852427011       -1.6523649292       -4.2266156863
 C        -6.3416988524       -2.6751841906       -1.7797070802
 C       -10.4645430453       -7.9196443792       -1.1223508182
 C       -10.5965266637       -7.5241328994       -3.7279338053
 C       -15.3591542166       -1.4717413742        0.0014259345
 C       -16.1670443127       -3.5860120074        1.0998338394
 C       -16.8216082496       -5.1412924295       -6.6761900405
 C       -18.4908813986       -3.2373741762       -6.6426664937
 C       -23.7953936877       -4.8408836466       -4.1853595919
 C       -22.8315372489       -2.8310310600       -2.9209903389
 H       -23.6120606649       -5.9666741854       -1.5562706227
 H       -22.1790066568       -6.9163615056       -1.1340871675
 H       -22.9023965583       -6.9889763837       -2.8059569819
 H       -21.3924694740       -4.0824705105       -6.8133333630
 H       -22.2720448562       -5.3871823087       -5.9509839853
 H       -19.5134257721       -5.7280919889       -7.1274846284
 H       -20.2846369851       -6.8747453030       -6.1291515688
 H       -15.2599130483       -4.2958540885       -4.6764286747
 H       -16.0586631789       -5.1560383476       -3.4627693019
 H       -15.5447148159       -2.2540284879       -3.2554034729
 H       -14.2939967005       -3.3998718168       -2.6090563487
 H       -14.4846479566       -5.4272037139       -1.2069704308
 H       -14.2356174168       -5.6668521330        0.4390040413
 H       -11.8276244467       -5.9409038351        0.0297478521
 H       -11.7187841153       -4.4974463729       -0.6320446348
 H        -8.6094235783       -6.0651215436       -3.9615382413
 H        -8.0462719687       -7.3547450161       -2.8914478829
 H        -6.0112562699       -5.9220091803       -2.6809248304
 H        -6.9589581191       -5.0566439367       -1.6727007414
 H        -4.2158562323       -2.4725751691       -5.3716027363
 H        -5.0969728830       -3.8882720757       -5.5980762909
 H        -2.8528375512       -4.5739054817       -6.2441496211
 H        -2.7637766865       -4.9010033516       -4.4447064118
 H         2.0209911709       -3.2281467571       -7.4834655919
 H         0.9591959502       -1.9768945631       -6.9453547006
 H        -0.4867610413       -2.6979642093       -8.8837368738
 H         0.2852286227       -4.3478074442       -8.8014540734
 H         3.3362052970       -3.1882149541      -12.9789828787
 H         3.6227969969       -2.8607964248      -11.3683435162
 H         4.1631954557       -0.5008354138      -11.7175403731
 H         3.5391000257       -0.5962466241      -13.4782738238
 H         8.5094063416       -2.7492244975      -14.8659174504
 H         7.7601967833       -1.8420817085      -13.4472133215
 H        10.3466058348       -1.1979499352      -14.9526688575
 H         9.7368471494       -0.6830384009      -13.4648354003
 H         7.7666190558        2.7642020551      -16.5336832922
 H         7.8729484010        4.2434390528      -15.7714487373
 H         5.6656848765        4.8873358680      -16.2742776008
 H         5.2138036583        3.6988867693      -15.1167144841
 H         2.9988894583        4.2262314661      -20.4979249923
 H         4.4042056341        3.4694537348      -20.0821181216
 H         5.6495129494        5.8021197193      -20.2753306892
 H         4.2416654062        6.4280579902      -21.0918569483
 H         8.7734623731        4.9671217074      -20.5824756770
 H         9.7998019499        5.1676663109      -22.0211783818
 H        10.6266486343        3.7418446048      -20.2407268771
 H        10.6133156245        2.8264560727      -21.7490272510
 H         8.8391380946       -0.9752773611      -23.0115267392
 H         7.7820180468        0.3860865707      -23.2085566328
 H         7.0289360834       -1.0762077946      -22.5209768478
 H        10.9351061776       -0.6141034133      -21.7624327946
 H        11.6998997027        0.8540500418      -21.2964790506
 H        10.5438655776        0.9928362912      -22.6569105767
 H        10.5210818613        0.7367192877      -18.5585490063
 H        10.9925333476       -0.5692927856      -19.4826811568
 H         9.3443937363       -0.5739279065      -18.8113146095
 H         6.5419273511        4.2287901039      -24.6972864702
 H         7.8630753406        5.4183807631      -24.5648852575
 H         6.2039056403        5.9786930351      -24.5225814907
 H         8.5919873907        6.4703045364      -22.4469986819
 H         7.4038689402        6.4870625846      -21.0702760909
 H         6.9023680819        7.2287822566      -22.4910116096
 H         3.1369879002        1.5277538313      -18.1757100957
 H         2.4301427583        2.6510974683      -19.2174520728
 H         1.8499118501        2.4443593393      -17.6433623185
 H         3.2856658280        5.1445454509      -16.1087347239
 H         2.9679657639        3.5813687675      -15.4758197217
 H         1.7768842883        4.2666744832      -16.6227247774
 H         8.0541723632        2.0138039256      -11.9222460452
 H         9.4029145526        0.9158646084      -12.3022061032
 H         7.5701953215        0.4242770491      -12.5397870858
 H        10.6851955879        2.4612508311      -13.8987654103
 H         9.3633096598        3.6525776696      -13.7515483558
 H         9.7483982886        3.1153614047      -15.3687243220
 H         4.8790828718       -3.9314352599      -13.9525230189
 H         6.6659677252       -3.8229126197      -13.7518239726
 H         5.7759585494       -4.1272397744      -15.4413646870
 H         3.5741334785       -2.0401046782      -14.9516288544
 H         4.3636254773       -2.4038667294      -16.3992297093
 H         4.4349176230       -0.7142925261      -15.9029542810
 H         1.6179058709       -5.1836356143      -11.4038964090
 H         0.9504899616       -4.5345258920      -12.9569263374
 H        -0.0386917988       -4.9675074411      -11.5761829317
 H        -0.9437721865       -1.6247719090      -10.9494560350
 H        -1.3096007153       -3.2362870246      -10.4901382092
 H        -1.1215788299       -2.8037283170      -12.2322630729
 H         0.3124137561       -1.9515369512       -3.5414718317
 H         0.2288595564       -1.4654005502       -5.2440276045
 H         1.5530958514       -2.4551935599       -4.5761299506
 H        -0.8396536462       -5.4010452241       -4.2491957425
 H        -0.5462030479       -4.1566459863       -2.9453545655
 H         0.7424033519       -5.1262672456       -3.7326890781
 H        -6.6664289541       -1.9653982809       -5.2505040208
 H        -5.6481654771       -0.9440461523       -4.3604910037
 H        -7.4019235027       -1.2461404254       -3.8936681982
 H        -7.4016392059       -2.9328059969       -1.5429002603
 H        -6.1941465242       -1.6310201012       -1.5031548193
 H        -5.6316627440       -3.3783631128       -1.2867353807
 H       -11.1295591291       -8.7689037517       -1.1004024938
 H       -10.5191216947       -7.3498865260       -0.2268097665
 H        -9.5397051537       -8.4712200565       -1.1935573866
 H       -11.4399899926       -8.1871546049       -3.9139008658
 H        -9.6679250383       -8.0659362753       -3.6409606996
 H       -10.4738458045       -6.7552902834       -4.5085399537
 H       -14.5206340074       -0.9613543016       -0.5069973606
 H       -15.2380084052       -1.1898432881        1.0247980338
 H       -16.2205340645       -1.0456179519       -0.4058209173
 H       -15.8128707754       -3.1353208621        1.9577112987
 H       -16.1167527982       -4.5932375238        1.2599290403
 H       -17.1778498057       -3.4252162764        0.9403107706
 H       -16.1027203500       -4.3476304846       -6.8722014298
 H       -17.3145014934       -5.3317620224       -7.6474212333
 H       -16.3896985624       -6.0548658467       -6.3748665952
 H       -19.3497346163       -2.7126803945       -6.2639634876
 H       -18.7231578537       -3.7014164063       -7.6112888151
 H       -17.8737418532       -2.3509019304       -6.7527613880
 H       -23.8009265497       -5.8582103397       -4.4283991348
 H       -24.1673711243       -4.1830563486       -5.0339031346
 H       -24.6539478656       -4.7490882858       -3.4516439102
 H       -22.7766880079       -2.9856675503       -1.8271612787
 H       -23.7827608345       -2.5683184332       -3.3760298048
 H       -22.1957629635       -2.0506053530       -3.2949110308
 Na      -19.3160492568       -3.4284047921       -2.6578277116
 Na        7.5728256373        0.8886843490      -17.9648465599
