232

 C       -22.7652926019       -6.3524273247       -2.0556089237
 C       -21.9509844580       -5.1433700098       -2.4905899982
 O       -20.9317736502       -4.8307246557       -1.8800043899
 C       -22.5198221537       -4.1616313639       -3.6156632659
 C       -21.4127080284       -3.9854958565       -4.6719548613
 O       -20.5582500745       -3.1308214047       -4.5503565368
 C       -21.2964565376       -4.8120872569       -5.9314216891
 C       -20.0955776923       -5.7848274218       -5.9627942395
 C       -18.8465648517       -5.4209714192       -5.2172553286
 O       -18.7243619079       -5.9946464195       -4.1612310895
 C       -17.8208339515       -4.3253455775       -5.8293837882
 C       -17.1188344353       -3.5605268870       -4.6739089496
 O       -17.5997390557       -2.5221485695       -4.2351160293
 C       -15.8878039775       -4.1234438858       -3.9273118685
 C       -15.4125210615       -3.1738436261       -2.8268954392
 C       -16.1707073931       -3.3521770909       -1.4953624639
 O       -17.3369030056       -3.6166769778       -1.4436087303
 C       -15.3988997441       -2.9484760308       -0.1303383821
 C       -13.9590646338       -3.5381342130       -0.1799494386
 O       -12.9975283635       -2.8734225017        0.2440138542
 C       -13.6841306085       -5.0404740057       -0.5465611089
 C       -12.2173827314       -5.4208808211       -0.6856510471
 C       -12.0127511669       -6.0647717234       -2.0507212010
 O       -12.7944923915       -5.8607705726       -2.9561448160
 C       -10.6892235547       -6.8588436106       -2.2011223590
 C        -9.4554243897       -5.9116422693       -2.0363610644
 O        -9.3014633697       -5.2522535822       -1.0323613655
 C        -8.2808710223       -6.1347404916       -3.0575338613
 C        -7.0287759610       -5.3506492128       -2.5648981526
 C        -6.8029128556       -4.1974039467       -3.6184717457
 O        -6.9796998206       -4.3841733785       -4.8336805788
 C        -6.1330678191       -2.8915447559       -3.2105996058
 C        -4.6002967277       -3.3361315898       -3.5786452061
 O        -4.0008696973       -3.9219237609       -2.7005866255
 C        -4.1813802175       -3.3526478007       -5.0827422756
 C        -2.9075210539       -4.1836020768       -5.2209526672
 C        -1.7116811678       -3.1089177136       -5.3057637758
 O        -1.9353547295       -2.0103817929       -5.7595871139
 C        -0.2886487397       -3.5051027898       -4.9439582984
 C         0.4055168188       -3.9505241603       -6.2921695596
 O         0.5177980787       -5.1490296098       -6.4513593883
 C         0.9604856905       -2.9368051832       -7.2131126408
 C         0.3774169031       -3.2474741815       -8.6318107014
 C         1.3643706201       -2.9804766232       -9.8164038489
 O         2.5330970015       -2.7875058749       -9.5382526048
 C         0.8489053515       -2.9695812338      -11.3286674575
 C         1.8087642750       -2.0706984503      -12.1884960062
 O         1.3979325076       -0.9584933053      -12.5206240814
 C         3.2276702875       -2.3763934771      -12.4457538691
 C         4.1118730457       -1.1758444275      -12.7337229371
 C         5.4157470232       -1.6444797186      -13.2493804116
 O         6.3165971947       -1.7893479152      -12.4859830893
 C         5.6000000815       -2.0878761928      -14.7540814633
 C         6.8832521121       -1.4938628288      -15.4020357835
 O         6.8829146263       -0.6589051107      -16.3312944089
 C         8.1656452357       -1.9201555257      -14.6496567601
 C         9.3032868829       -0.8683231693      -14.5534538206
 C         9.1076711598        0.6633367814      -15.0078121141
 O         9.3820523350        0.7845916169      -16.2118643595
 C         8.6820907096        1.7648709115      -14.0072850705
 C         7.1981661680        2.3141625962      -14.4854995963
 O         6.2472403465        2.1628043545      -13.7365704262
 C         7.1441258108        3.3443822469      -15.6938902130
 C         5.7527755026        3.7266654260      -16.0291267571
 C         5.0451658767        3.0870495867      -17.2109642887
 O         5.4347996272        2.0186043861      -17.7046421513
 C         3.5775866156        3.5868846289      -17.6240383770
 C         3.6898007558        4.8491923704      -18.6939572751
 O         3.7446197224        5.9238598826      -18.2181293078
 C         4.0328400872        4.4263448299      -20.2003478206
 C         4.8649929046        5.4130842224      -20.9875590654
 C         5.4677326011        4.6171679155      -22.2713759514
 O         4.6802852826        3.9370376800      -22.9282115752
 C         6.9098801716        5.0597224314      -22.7165422252
 C         7.8983994883        3.9258088651      -22.2474683843
 O         7.6889099375        2.7079476347      -22.4332242812
 C         9.1590424302        4.3979187666      -21.4796479635
 C        10.1266629822        3.3055781406      -21.0150051024
 C         9.3542369570        2.2291032614      -20.2614032596
 O         8.6597483961        2.6019790110      -19.3171221359
 C         9.5666555198        0.6963586893      -20.6743334755
 C         8.1870641881        0.0147377874      -20.9447855045
 O         7.4095944649       -0.3743790955      -20.0023822060
 C         8.0754553797       -0.4341773427      -22.4612052851
 C        10.6931375439        0.4290327283      -21.6529106182
 C        10.1129264047        0.2259238992      -19.3089303879
 C         6.6541518952        5.1306629032      -24.3681354057
 C         7.2743191368        6.5366924553      -22.3043591916
 C         2.6911615325        2.3971895798      -18.0610510667
 C         2.8124054321        4.2031963957      -16.3366997847
 C         8.5018806331        1.3190976477      -12.6521473410
 C         9.8438638718        2.8013280282      -14.1377082168
 C         5.8586550929       -3.6404800178      -14.6368140114
 C         4.3346468212       -1.7071446230      -15.6408485177
 C         1.0019525391       -4.3770684591      -11.7913840273
 C        -0.5924726838       -2.5450926911      -11.4510844890
 C         0.5039213070       -2.2464365476       -4.4818418194
 C        -0.2081036451       -4.5904833796       -3.8991795085
 C        -6.4066466064       -1.7145013585       -4.2138443172
 C        -6.3636950482       -2.4669457111       -1.6748009711
 C       -10.5142457561       -7.8823605815       -1.0970910975
 C       -10.7586079606       -7.5331075519       -3.5483755376
 C       -15.3475993784       -1.4272995531       -0.0029145971
 C       -16.1038801613       -3.6373327939        1.0223105567
 C       -16.7271479612       -5.1148605160       -6.6207378157
 C       -18.4977408822       -3.3237456032       -6.6788021621
 C       -23.8089219578       -4.7827867399       -4.1805958697
 C       -22.8343732584       -2.8440954004       -2.8086632037
 H       -23.9175071973       -6.2112416221       -1.9181809400
 H       -22.4266751906       -6.8024485426       -1.1434894686
 H       -22.6413295085       -7.1117118784       -2.8717714700
 H       -21.2560502386       -3.9200023022       -6.6779368606
 H       -22.2655009540       -5.3150061477       -6.0842687818
 H       -19.7777456230       -6.0683040644       -6.9673899048
 H       -20.4005851387       -6.7525564026       -5.5488436748
 H       -15.0531796343       -4.5552819368       -4.5782445215
 H       -16.2632306932       -5.0407406734       -3.4180334427
 H       -15.4507955348       -2.1151347505       -3.1760922098
 H       -14.4055885217       -3.4682327779       -2.7000079220
 H       -14.3018171589       -5.4574092830       -1.3683379126
 H       -14.0550398831       -5.6304962814        0.2868782971
 H       -11.9330422380       -6.1430440053        0.0513516873
 H       -11.4534401681       -4.6763862248       -0.4809139763
 H        -8.5105707788       -5.9098514422       -4.1310397454
 H        -8.1104157435       -7.2680900766       -2.9344630316
 H        -6.1419259807       -5.8935118623       -2.6484654301
 H        -6.9929802729       -5.0655680099       -1.5337460562
 H        -4.0043896746       -2.3672510410       -5.4702505489
 H        -5.0629096429       -3.7142898761       -5.5900736073
 H        -2.8849010864       -4.6911920024       -6.2003480288
 H        -2.8295680720       -4.9144492796       -4.3131791806
 H         2.0453237590       -2.7587094508       -7.3744535520
 H         0.5529571383       -1.9775723211       -6.9205937594
 H        -0.4705747602       -2.6987354439       -8.8249075222
 H         0.1617058152       -4.3593242228       -8.7063777263
 H         3.2988375895       -3.1386878119      -13.2429421412
 H         3.7355602695       -3.0064613545      -11.6009550395
 H         4.3211329654       -0.7877167896      -11.7432845536
 H         3.6380681169       -0.4860831562      -13.4128156540
 H         8.6110806986       -2.7897947449      -15.2404171113
 H         7.7482031202       -2.1347639531      -13.6524907529
 H        10.1467801937       -1.1004627784      -15.1206043007
 H         9.6502296347       -0.9605651741      -13.5179465197
 H         7.8241121146        2.9418310880      -16.5236816819
 H         7.7079570529        4.2970894465      -15.4837740143
 H         5.7375704040        4.8521033285      -16.3903628471
 H         5.0417545038        3.7047695417      -15.1214322565
 H         3.0437881307        4.1454864258      -20.7461180527
 H         4.3335562425        3.4428718504      -20.0452345806
 H         5.6519059681        5.9127490718      -20.3733811323
 H         4.1776246041        6.1962262833      -21.3991143999
 H         8.8868860247        5.0456849122      -20.6405098559
 H         9.7028015839        5.0747478354      -22.2418990206
 H        10.7382380190        3.8577714920      -20.3624456588
 H        10.7281670132        2.8141628815      -21.8227203494
 H         8.9152459604       -1.0763766529      -22.7915238457
 H         8.1432677115        0.4128478493      -23.2212597453
 H         7.1319645351       -0.9205719765      -22.6821744419
 H        11.0532232962       -0.5765328071      -21.6066183166
 H        11.5934033331        0.9273876781      -21.3226606784
 H        10.4068406657        0.7043496494      -22.6529995321
 H        10.1422909132        0.8793358097      -18.4760234303
 H        11.1493774516       -0.1667417552      -19.3165929415
 H         9.5052167588       -0.6039220272      -18.9800653018
 H         6.0837716462        4.3475235781      -24.8850665039
 H         7.5588626036        5.2392851583      -24.8957493516
 H         6.1107797555        6.0961091136      -24.5256489468
 H         8.2264970646        6.7387683581      -22.7600257310
 H         7.4927713234        6.5217785903      -21.2650317742
 H         6.4922860401        7.3087559970      -22.3371331925
 H         3.1766513950        1.4556807560      -18.3293833083
 H         2.0716573947        2.6422398316      -18.9249822513
 H         2.0024400248        2.0412304715      -17.3187419777
 H         3.5061989032        4.9342459036      -15.9595389167
 H         2.6036847496        3.5056005597      -15.5173279535
 H         1.9230186497        4.6213539215      -16.7112368366
 H         8.1986329425        2.1785683404      -12.0301222566
 H         9.4362593916        0.8974858450      -12.3238168233
 H         7.6049565745        0.6579075638      -12.6518773057
 H        10.5420837391        2.5130850805      -13.3918299219
 H         9.4322932532        3.8381680607      -13.9527859220
 H        10.1724935869        2.7517288316      -15.1161732209
 H         5.1755834923       -3.9922925247      -13.7524273690
 H         6.9627682891       -3.9400473048      -14.4208673043
 H         5.3964442596       -4.0826445185      -15.5161346523
 H         3.4860224491       -2.0505953833      -15.0953139321
 H         4.3666304633       -2.2530456850      -16.6290674329
 H         4.4114339613       -0.5949940497      -15.7626138936
 H         1.9942700857       -4.7621067091      -11.8357941081
 H         0.5806544687       -4.5010203701      -12.7749086714
 H         0.4828033246       -5.0830318034      -11.1159365837
 H        -0.8933961786       -1.6118577822      -10.9836114108
 H        -1.0789334096       -3.2718158277      -10.8208366094
 H        -0.9795076620       -2.5462415772      -12.4699509228
 H         0.3505595315       -1.9234503966       -3.4341733894
 H         0.2222233031       -1.5074774552       -5.1771510030
 H         1.4967501083       -2.5599840133       -4.5712922848
 H        -0.4821841793       -5.4622172750       -4.4160697179
 H        -0.8727922091       -4.2844492651       -3.0446977946
 H         0.8467372055       -4.7003825237       -3.6048327787
 H        -6.4443974829       -2.1567615756       -5.1656747654
 H        -5.5471326742       -1.1120473922       -4.3225088538
 H        -7.3773748943       -1.1776304035       -4.0764280160
 H        -7.3817237101       -2.9071265621       -1.4017344321
 H        -6.4905037989       -1.4012257978       -1.5649295340
 H        -5.5927142807       -2.8897667888       -1.0796668231
 H       -11.2835571160       -8.5849806453       -0.9396256430
 H       -10.3576611566       -7.2763556563       -0.2103632466
 H        -9.6206640105       -8.5871797564       -1.2609356166
 H       -11.4270995486       -8.4623462112       -3.5563179423
 H        -9.7486829434       -7.8062544040       -3.7921016042
 H       -11.1079467396       -6.7824261751       -4.2009169844
 H       -14.8300395588       -1.0183647338       -0.9286525634
 H       -14.7213120319       -1.1286327668        0.8138385125
 H       -16.3404588093       -0.8961608352       -0.0113767331
 H       -15.7431669117       -3.4584509564        1.9820186415
 H       -16.0836430993       -4.6766455905        0.8578210270
 H       -17.1285147109       -3.4407016790        0.9411457188
 H       -15.7904485550       -4.7803392537       -6.4059590600
 H       -16.9358229348       -5.0046275177       -7.7022094945
 H       -16.8318265717       -6.2045186381       -6.4884811998
 H       -19.2564616933       -2.8409367421       -6.2222515654
 H       -18.8098851207       -3.8151389221       -7.6296955793
 H       -17.9014973837       -2.4443099545       -6.8625219922
 H       -23.6676617675       -5.8211861529       -4.4626597298
 H       -24.2529581494       -4.2409741676       -5.0169076152
 H       -24.6676021272       -4.8248167562       -3.4262412078
 H       -23.1591064903       -3.2176495062       -1.9036098324
 H       -23.5776293957       -2.3062623384       -3.3651435053
 H       -21.9758754683       -2.1688898385       -2.7472793431
 Na      -19.1964984548       -3.4790657686       -2.5947105217
 Na        7.4589478133        0.8881921101      -17.9318597460
