232

 C       -17.0283953775      -14.1468573320       -0.3346038663
 C       -16.2443098953      -14.0838147416       -1.6755204161
 O       -16.4247803123      -13.1247052689       -2.4212948809
 C       -15.3107181207      -15.2433202791       -2.0137981011
 C       -14.9230932736      -15.2438442571       -3.5056463329
 O       -15.6881774005      -15.0388079877       -4.4178505854
 C       -13.4983504689      -15.7378287504       -3.8107154546
 C       -13.2807275104      -15.6274518623       -5.3305327278
 C       -13.6965255686      -14.2434002062       -5.8092179278
 O       -13.6062222136      -13.2407986139       -5.0468402107
 C       -14.0233835801      -14.0467701541       -7.2831662950
 C       -14.9424107769      -12.7365647269       -7.3303899655
 O       -16.1185870411      -12.8340462970       -7.1552208237
 C       -14.3320522347      -11.3361742407       -7.4042617596
 C       -15.4688694819      -10.2659890483       -7.5645770385
 C       -15.8420478552       -9.4703969258       -6.2812642012
 O       -15.9279051672      -10.0479400823       -5.2021710702
 C       -16.0886261393       -7.9419535232       -6.4587533702
 C       -14.6779041247       -7.3125134825       -6.1763646526
 O       -13.7331551802       -8.0129578708       -5.9995168647
 C       -14.6244218066       -5.7254931524       -6.1396536682
 C       -13.3704458381       -5.2828752617       -6.8918885074
 C       -13.1017644171       -3.7209538567       -6.6789707289
 O       -13.4447243078       -3.0483371283       -5.7140335962
 C       -12.2153614798       -2.9319224841       -7.8857768786
 C       -10.7016605672       -3.1101843301       -7.4145171630
 O       -10.2702880963       -4.2752651802       -7.4712594740
 C        -9.8175092065       -1.8723878754       -7.2038701251
 C        -9.9162394580       -0.8729171869       -5.9816068860
 C        -9.8514303179        0.5237575708       -6.4330538731
 O       -10.1607343899        0.9203239688       -7.6064931843
 C        -9.3700007279        1.6491395166       -5.4780586527
 C        -7.8401733408        1.9813048969       -6.0096203331
 O        -6.9227262635        1.5826829853       -5.3875547302
 C        -7.6329956247        2.5820468997       -7.4415974197
 C        -6.3440909921        2.1712568477       -8.1563687992
 C        -5.7587710281        3.3520230164       -8.9589098105
 O        -5.6240164840        4.3880926479       -8.2896580575
 C        -5.5111330286        3.3214558759      -10.4777479418
 C        -4.2274110332        2.4501820579      -10.6583328392
 O        -4.3627645788        1.3950684083      -11.2577859917
 C        -2.8845134547        2.8269912604      -10.0838054982
 C        -1.9898337801        1.6100428060       -9.7644346721
 C        -0.5712411711        2.0778211436       -9.9129668441
 O        -0.1387766890        2.6106594364      -10.9577013857
 C         0.4259220278        1.5147009869       -8.7686265271
 C         1.9786942752        1.9871120064       -9.2028465050
 O         2.6555960371        1.2140103141       -9.8670179751
 C         2.6054538208        3.3450830711       -8.7773433885
 C         3.5605825849        3.9271263740       -9.8309586235
 C         2.9065701444        5.2233953958      -10.5336105015
 O         1.9068486247        5.6276353791      -10.0348117471
 C         3.7587763651        5.9801305593      -11.5793308264
 C         4.2103922926        5.1240658103      -12.8414781703
 O         5.3369953302        4.6700038290      -12.8952951379
 C         3.3057626466        4.7497814904      -13.9995175138
 C         3.6267681840        5.7477974282      -15.1513343650
 C         3.6044305950        4.8254567219      -16.4816922054
 O         3.9111002396        3.6802749728      -16.3026981992
 C         3.3914958621        5.5037491912      -17.8764207110
 C         4.9990148380        5.5365656086      -18.3371623597
 O         5.3274554489        4.7941967068      -19.1878103546
 C         5.8728958306        6.6490416840      -17.8291035245
 C         7.3768697226        6.2885102065      -17.6484722558
 C         7.3407668727        4.9443051577      -16.7297071614
 O         6.6029026370        4.9530346349      -15.7815197517
 C         8.4001158019        3.7420052735      -17.0145288995
 C         9.7921289365        4.2170491754      -16.1570366267
 O         9.6599653609        4.8871458788      -15.1691500392
 C        11.1400869755        3.6645681015      -16.6366411224
 C        12.1825677499        3.3243205517      -15.4653323295
 C        11.7722842545        1.8422714788      -14.8992348528
 O        11.2902990054        1.0399758366      -15.6499924910
 C        12.0892532602        1.3483385168      -13.4339855669
 C        10.9905144345        0.2592334044      -13.0153716958
 O        11.3316776627       -0.8768883417      -12.6723459492
 C         9.6029854588        0.6915214215      -12.9923720919
 C         8.5166252621       -0.3316038215      -12.9101232226
 C         7.2086315500        0.2912459351      -13.3273306387
 O         7.2061229196        1.4763352413      -13.5747203083
 C         5.9784756094       -0.6535165694      -13.3647396066
 C         5.0926521983       -0.1753363563      -14.6546296341
 O         4.5135578073        0.9151542209      -14.6418628927
 C         4.9681988201       -1.1170806157      -15.9898141053
 C         6.1908114071       -2.1738871710      -13.4732107018
 C         5.3449682514       -0.4153933233      -12.0114402538
 C        13.5152980833        0.7095673768      -13.5996883319
 C        12.1381591298        2.4845149533      -12.4010626308
 C         7.9665132655        2.3916480575      -16.3076498659
 C         8.7212626903        3.4418149721      -18.5000968423
 C         2.6557277855        4.7055547358      -18.9832610888
 C         2.8692856023        6.8869253042      -17.8138450277
 C         2.9979533624        7.2555568561      -12.1478953080
 C         4.9983008891        6.5325254153      -10.8669685680
 C        -0.0090754721        2.0702576842       -7.3563798203
 C         0.4858831592       -0.0477921295       -8.7926234852
 C        -6.5862494622        2.8715284451      -11.4710319256
 C        -5.2030028240        4.7995557045      -10.9170015972
 C       -10.2511436178        2.9269200661       -5.7032265907
 C        -9.4474385207        1.3213998898       -3.9374815015
 C       -12.1450665539       -3.5592934531       -9.3169483152
 C       -12.6358270674       -1.4182544499       -7.8891658996
 C       -16.6202665081       -7.5013251794       -7.8482499563
 C       -17.1037584085       -7.4625762278       -5.4534949341
 C       -12.8160614307      -13.9115822777       -8.2625495947
 C       -14.8292491846      -15.2750312218       -7.7697068254
 C       -14.1480248581      -15.2607977593       -0.9941795096
 C       -16.2510212073      -16.5661909872       -1.8550207191
 H       -16.5759718974      -13.4180193825        0.3743665820
 H       -16.9885750239      -15.0891674333        0.1851853984
 H       -18.0395070484      -13.9704182347       -0.5827611440
 H       -13.4352154526      -16.8069510814       -3.6260886176
 H       -12.7192816867      -15.3045350662       -3.1517913028
 H       -13.9329856026      -16.3308027249       -5.8513165472
 H       -12.2289829888      -15.7442684618       -5.6924922194
 H       -13.7169346624      -11.2124075439       -8.2694625882
 H       -13.5452834149      -11.2647250951       -6.5881065779
 H       -16.4696911511      -10.8139778298       -7.8184784329
 H       -15.2222117425       -9.6059082712       -8.4119972422
 H       -14.5919480195       -5.4062970042       -5.0843465527
 H       -15.5562695138       -5.2851346740       -6.5486404120
 H       -13.4137145823       -5.6287518140       -7.9605897776
 H       -12.5580462816       -5.8217935713       -6.5292836341
 H        -9.7907633288       -1.3811664870       -8.1698538461
 H        -8.8022417519       -2.2720145085       -7.1830567264
 H        -9.0583742242       -1.1022969798       -5.2595551286
 H       -10.8407025451       -1.1103984789       -5.4858243813
 H        -7.6526002774        3.6287777419       -7.3335266153
 H        -8.4756333739        2.3738830691       -8.1950483438
 H        -6.4315536027        1.2142824335       -8.7673885200
 H        -5.6185578560        1.8967827387       -7.3195946587
 H        -2.8527555157        3.5188490009       -9.1650262033
 H        -2.5097934280        3.5649367929      -10.8684818468
 H        -2.2936277712        0.7301337220      -10.4463536877
 H        -2.2158433090        1.3600760537       -8.7395767416
 H         3.2815742962        3.1646246420       -7.9194603253
 H         1.7259041631        3.9660357267       -8.3953817950
 H         3.8934978320        3.1327425268      -10.4626231345
 H         4.4954909880        4.2877325534       -9.4118654589
 H         2.2798406773        4.6603343715      -13.7246226586
 H         3.6764394796        3.7765070134      -14.3573540107
 H         4.5850834606        6.0547962055      -14.9463678060
 H         3.0872715085        6.6638626940      -15.0479887719
 H         5.6855958576        7.0947571066      -16.9089700778
 H         5.7993295643        7.5251648429      -18.5079515708
 H         7.9256002130        6.9740462647      -17.1382516934
 H         7.8671187804        6.0565507046      -18.6206602727
 H        11.4957960600        4.4824278504      -17.2915641782
 H        10.8953380365        2.6449760329      -17.0796171037
 H        12.0813720052        4.1596511466      -14.7963100312
 H        13.1300645553        3.3439229749      -16.0100720703
 H         9.4502583661        1.4231977292      -13.7812469661
 H         9.5986999351        1.3935954293      -12.0658409897
 H         8.4142942401       -0.5690895898      -11.8442966902
 H         8.8408602429       -1.2898600985      -13.4041347696
 H         5.7938511392       -0.9726664563      -16.5908694679
 H         4.1644809887       -0.6401761278      -16.5411758842
 H         4.7672004903       -2.1378568362      -15.7359039254
 H         5.1511628330       -2.6016547055      -13.6301975973
 H         6.6692155682       -2.4055808005      -12.5236861068
 H         6.9256994352       -2.5889157680      -14.1901277956
 H         5.7668221539        0.3431624401      -11.4148414640
 H         5.4069005457       -1.3207211113      -11.3067495273
 H         4.3104371200       -0.1183407172      -12.0522259692
 H        14.3141298925        1.3885528509      -13.8130022110
 H        13.4488600948       -0.0911569693      -14.3616946993
 H        13.9347681045        0.1873697902      -12.7452329083
 H        12.9434919503        3.2400100580      -12.4697418951
 H        12.2083285804        2.0326814024      -11.3966098252
 H        11.2299729276        3.0723004060      -12.5853349524
 H         8.2084730101        2.6079334892      -15.2102840905
 H         8.5400660697        1.6091611884      -16.7756549286
 H         6.9218902971        2.2377751057      -16.7276727789
 H         8.8560351213        4.3603488642      -19.0581199094
 H         7.8646231476        2.8281687810      -18.8854248317
 H         9.6994197093        2.9098541206      -18.6567155419
 H         1.5313426292        4.8297367164      -18.9539075191
 H         2.9078962624        3.6712093557      -18.8809880890
 H         3.1268259643        4.8926618357      -19.9973909938
 H         2.7974976012        7.3510481188      -18.7388156213
 H         3.4928764557        7.5485686456      -17.2266572950
 H         1.8367023294        6.8253476771      -17.4268419690
 H         3.0741331675        8.1087778573      -11.5259953928
 H         1.9452087836        6.9165375103      -12.2528694870
 H         3.4824279344        7.4262526084      -13.1624446587
 H         5.6885561507        7.1185683674      -11.5312915773
 H         5.4678027438        5.6325787270      -10.4555429610
 H         4.6428988102        7.0948831323      -10.0624961442
 H         0.0293205494        3.1482923374       -7.2276670498
 H         0.5095115800        1.6715490592       -6.5359282558
 H        -1.0435590250        1.8683975738       -7.3065914793
 H        -0.4680300110       -0.5437391496       -8.9002225854
 H         0.6760766607       -0.3830100028       -7.7598823917
 H         1.0517402264       -0.4844404397       -9.6126111817
 H        -6.7067744927        1.8389491046      -11.3661068928
 H        -6.2802332333        2.9777134266      -12.5218334373
 H        -7.5122203611        3.2819441716      -11.2922417697
 H        -6.1781361158        5.3404941391      -10.8968297613
 H        -4.6768221064        4.9134810499      -11.8455888286
 H        -4.6130785684        5.2289156194      -10.0629398697
 H       -11.1741477320        2.8749222280       -5.1228335790
 H       -10.5256307965        2.9306066296       -6.7536257616
 H        -9.6553520395        3.8486621235       -5.6061697576
 H        -8.8785706622        1.9854964441       -3.2517004433
 H        -8.8786220560        0.3779857848       -3.7849840914
 H       -10.5035238695        1.1605458469       -3.5098494650
 H       -11.6272357494       -2.8573848295      -10.0321306294
 H       -13.1436133906       -3.6302595207       -9.6554204606
 H       -11.6388314736       -4.5382504011       -9.4021103417
 H       -13.6778537611       -1.2916895025       -8.0914804710
 H       -12.1073994265       -0.8913764622       -8.6683286637
 H       -12.5279505894       -0.8861858664       -6.9787362626
 H       -15.7204197483       -7.3727268067       -8.4398643994
 H       -17.0960463612       -6.5448645149       -7.6957009170
 H       -17.1701411502       -8.2855550566       -8.2126877845
 H       -16.6821386093       -7.4906402491       -4.5220748526
 H       -18.0534914280       -8.0513685335       -5.5700366619
 H       -17.4996387705       -6.4908039635       -5.4804299743
 H       -12.2925993713      -12.9871467344       -8.0892515623
 H       -13.1272226156      -14.1241808075       -9.3183407623
 H       -12.1955185790      -14.7573121195       -8.0317807858
 H       -15.4371486219      -15.6224790062       -6.9958621661
 H       -14.1314778782      -16.0268024108       -8.0271903528
 H       -15.3190924894      -15.0527880600       -8.6591086313
 H       -13.7087531503      -14.2517283688       -0.9908891035
 H       -13.4979134973      -16.1484528888       -0.9750233140
 H       -14.6502475540      -15.2702394085        0.0276321360
 H       -17.1813337249      -16.4816519085       -2.4932484646
 H       -16.5009349863      -16.6381545257       -0.7837023149
 H       -15.7470495580      -17.4730153426       -2.0935134967
 Na      -15.9137162355      -12.6370136419       -4.6954648278
 Na        5.7160178440        3.1332322162      -14.6328552800
