232

 C       -22.9275482549       -6.3322580181       -2.1537788060
 C       -22.2933269889       -4.9636262636       -2.3769412756
 O       -21.3158438467       -4.6154782229       -1.7418278947
 C       -22.7673274184       -4.0035414523       -3.5393802315
 C       -21.5691810379       -3.7737663518       -4.5372382676
 O       -20.5188756237       -3.2628877436       -4.2464810278
 C       -21.5775680354       -4.4256895032       -5.9472332741
 C       -20.3990516059       -5.4585019508       -6.0710355075
 C       -19.1838159979       -5.1974289688       -5.2131783789
 O       -19.1799386607       -5.6185683342       -4.0539020251
 C       -17.8502536591       -4.4967985318       -5.8867024098
 C       -17.1234834266       -3.5258927173       -4.8041735365
 O       -17.7374167550       -2.6095772652       -4.3879475677
 C       -15.8484082351       -3.9477284120       -4.1569808452
 C       -15.5704822962       -3.1310654420       -2.9108221875
 C       -16.0833108355       -3.7102088628       -1.6161005575
 O       -16.9841205846       -4.5632215083       -1.5588610155
 C       -15.5141795881       -3.0662806396       -0.2796318093
 C       -13.9525848226       -3.5144909736       -0.2211865683
 O       -13.0909778443       -2.7609316707       -0.6967953684
 C       -13.6681304378       -5.0289043555        0.0879422312
 C       -12.2488138095       -5.4158927484       -0.2751792376
 C       -12.1114115862       -6.1307707195       -1.6651467142
 O       -12.9629725166       -6.0391323643       -2.5534606893
 C       -10.8021831361       -6.9397158416       -1.9112618315
 C        -9.5052121262       -5.8538748966       -1.7575726078
 O        -9.4517601539       -5.0204251296       -0.8535341073
 C        -8.3759831382       -6.0145535326       -2.7652153003
 C        -7.2833881491       -4.9852847565       -2.4708523503
 C        -7.1806248153       -3.7154928441       -3.4652599741
 O        -7.9462306363       -3.6971727096       -4.4267802597
 C        -6.1285367104       -2.5951274942       -3.2068479677
 C        -4.6893626943       -3.1968028362       -3.5959845435
 O        -4.0567756829       -3.5983921045       -2.6329822791
 C        -4.1032245007       -3.3045017993       -5.0552325559
 C        -2.6813082462       -3.8486262844       -5.2313044188
 C        -1.5089550288       -2.8406907321       -5.4715932087
 O        -1.7737436569       -1.7041350619       -5.8022968180
 C        -0.0660855477       -3.2423312955       -5.0544443332
 C         0.6523520173       -3.7958263374       -6.4545133844
 O         0.8184969798       -4.9748618644       -6.5048234858
 C         1.0865388115       -2.8241183835       -7.5510843424
 C         0.4660447852       -3.0679858741       -8.8972939415
 C         1.5451070015       -2.7820882234       -9.9759251358
 O         2.6945654570       -2.5127257359       -9.6837505135
 C         1.1313586954       -3.0317240062      -11.4572201409
 C         2.0740796534       -2.1150626108      -12.1941478583
 O         1.8077055298       -0.8948622839      -12.2292076297
 C         3.3732690425       -2.6138164067      -12.7912882520
 C         4.3793603733       -1.5114630564      -13.0080266155
 C         5.5604480104       -1.9858507650      -13.8440252511
 O         6.5916552886       -2.1574655864      -13.1804191012
 C         5.6769884207       -2.1317284727      -15.5305991093
 C         6.8702098302       -1.2256054931      -16.1731660040
 O         6.6018192681       -0.2732483644      -16.9661789345
 C         8.2801186119       -1.6425013985      -15.9103446548
 C         8.8963575046       -0.9363421104      -14.5638841744
 C         9.0634691410        0.4983030437      -14.8831144275
 O         9.6257075765        0.8237766550      -15.9360422666
 C         8.6290579456        1.6376879031      -13.9020485115
 C         7.1683593394        2.1279619037      -14.0852709133
 O         6.1999106096        1.4823131457      -13.7064876982
 C         6.9845738835        3.4634069822      -14.8558944727
 C         5.5423977957        3.6251974175      -15.2537611238
 C         5.0631380725        2.8177071208      -16.6163175554
 O         5.7352750929        2.0780712373      -17.2697306320
 C         3.5928865719        3.1744950651      -17.1856624179
 C         4.1175287963        4.0913015480      -18.3678816374
 O         4.3832352849        5.2545622413      -18.1850458689
 C         4.4683783625        3.4195887592      -19.6998464936
 C         5.2953315531        4.4552992326      -20.5626393429
 C         5.2528543235        4.0457286672      -22.0810075348
 O         4.4022989618        3.3186496626      -22.6080090243
 C         6.4300695238        4.5916600541      -22.9073581522
 C         7.7656559061        3.7556656457      -22.5674897909
 O         7.8219977532        2.6246385005      -22.9758659474
 C         8.7109784819        4.4398774745      -21.5713372106
 C         9.8723991975        3.6037329190      -21.1558154503
 C         9.6196117328        2.5169070131      -20.1739360359
 O         9.2471147203        2.8393870542      -19.0308149676
 C         9.6775965034        1.0064666779      -20.5768804967
 C         8.1705399659        0.4011362367      -20.7849088058
 O         7.3491710081        0.5179507885      -19.8921935107
 C         7.9819840854       -0.4091491979      -22.0228536594
 C        10.6452741688        0.6782752036      -21.7015191794
 C        10.3303896651        0.2556350956      -19.3912605521
 C         6.0358387985        4.4715285887      -24.4772355595
 C         6.7747331781        6.0469941972      -22.7631756176
 C         2.7181905312        2.0082262338      -17.6496453600
 C         2.7030035458        4.0652734253      -16.2652960877
 C         8.6099881030        1.0351706187      -12.4515597730
 C         9.7237718443        2.7590718409      -14.1297988875
 C         6.0705959658       -3.6478680885      -15.7671014934
 C         4.4021620195       -1.7598451321      -16.2010535595
 C         1.1599161026       -4.5113175797      -11.9025692624
 C        -0.3404677056       -2.4215682343      -11.7414844743
 C         0.6815159576       -1.9425246294       -4.5433457416
 C         0.0717397027       -4.3813044734       -3.9378387697
 C        -6.4769540360       -1.3941869537       -4.1792231414
 C        -6.0321823769       -2.2532826918       -1.6837124523
 C       -10.4826618323       -7.9017370372       -0.7745874299
 C       -10.8297071769       -7.6333079558       -3.2722266318
 C       -15.4941178719       -1.5655971528       -0.3493786082
 C       -16.3308211222       -3.5828290722        0.8839075429
 C       -16.8260572675       -5.5600447062       -6.2295541361
 C       -18.1800192269       -3.6055592068       -7.0594023679
 C       -24.0517994131       -4.4640753825       -4.2280096864
 C       -23.1059904357       -2.6192811716       -2.8744118614
 H       -23.9023217834       -6.1462835074       -1.6654112324
 H       -22.3180241870       -6.9599291449       -1.5347550426
 H       -23.1737790309       -6.8508570640       -3.0981071321
 H       -21.5475078138       -3.5464013174       -6.5427936338
 H       -22.4889214562       -4.9771671584       -6.1049648967
 H       -20.1940486889       -5.5445480852       -7.1277838156
 H       -20.7729816590       -6.4082319063       -5.6885652598
 H       -15.0227438548       -4.0167224689       -4.8863440218
 H       -16.0472348759       -5.0027832559       -3.8221651093
 H       -15.9229161223       -2.1286672724       -3.0696075543
 H       -14.4055000553       -2.9770802799       -2.8244932465
 H       -14.3868697743       -5.7311416909       -0.3622630014
 H       -13.8086551251       -5.1718709052        1.1814677096
 H       -11.8748948741       -6.0706903662        0.5265380309
 H       -11.6066195529       -4.4942920834       -0.3511001017
 H        -8.8106264212       -5.8032611936       -3.8127154699
 H        -7.9916629982       -7.0528613647       -2.7780972002
 H        -6.2971860537       -5.5267142612       -2.3646056892
 H        -7.5214498491       -4.5425062608       -1.5150324085
 H        -4.0970409517       -2.2567432185       -5.4612673754
 H        -4.8811736774       -3.9000952098       -5.5912216738
 H        -2.6428738373       -4.6072849176       -6.0634650867
 H        -2.3878259279       -4.4123503676       -4.3668484656
 H         2.1976523387       -2.7657372524       -7.6571713012
 H         0.8085762871       -1.7839302598       -7.2348320174
 H        -0.3216018935       -2.3373231855       -9.1241767667
 H         0.0242137407       -4.0580146436       -8.9340125535
 H         3.0378906193       -3.1933184300      -13.7328782320
 H         3.7811292988       -3.4318619400      -12.2635292888
 H         4.7152108648       -1.0536634299      -12.0618379675
 H         3.9150147692       -0.6103933136      -13.4525715524
 H         8.9376033341       -1.2214939881      -16.6876395904
 H         8.3800436153       -2.7572386581      -15.7447797147
 H         9.8897226817       -1.4057910138      -14.4653723855
 H         8.2676880799       -1.0147665226      -13.7073604017
 H         7.7111259256        3.7373414266      -15.5981583852
 H         7.1104302707        4.2110146660      -14.0425683413
 H         5.3456747222        4.6785206589      -15.5812686367
 H         4.9344554008        3.3149134504      -14.3104969488
 H         3.6494931009        2.9804544915      -20.1938296215
 H         5.1085185538        2.4938571533      -19.4456437873
 H         6.3595857250        4.4417556246      -20.3408648631
 H         4.7935311977        5.4310637605      -20.6348047172
 H         8.0206730781        4.5740685712      -20.6919160499
 H         8.9708199181        5.4297020359      -21.8496947421
 H        10.6215813794        4.3118928267      -20.6543317599
 H        10.4818978948        3.1430813382      -21.9710335691
 H         8.8932122216       -1.0258875389      -22.2657196690
 H         8.0186977948        0.1607954469      -22.8869025184
 H         7.1243974402       -1.0465832413      -21.9387873345
 H        10.6776539508       -0.4453969256      -21.9267032895
 H        11.5852069354        1.0985554154      -21.5862660164
 H        10.3643901084        1.0118749711      -22.6430352918
 H         9.7444396868       -0.5230704712      -18.9476268884
 H        10.6495473689        0.9249313077      -18.6089079036
 H        11.2692078563       -0.2041656890      -19.5916190946
 H         6.0004189307        3.4405881691      -24.9184779310
 H         6.6716180546        5.0861472869      -25.0536608811
 H         5.0625663728        4.8613145820      -24.6200499055
 H         7.6815364118        6.2502686485      -23.2275464092
 H         6.8448014525        6.3085428439      -21.7082541325
 H         6.0426639858        6.5835765482      -23.2831048236
 H         3.2616085372        1.1759991377      -18.1897328161
 H         1.9251146699        2.3221668169      -18.2564985802
 H         2.1962853914        1.4682890314      -16.8380121116
 H         3.1740040444        5.0093015434      -16.0931630328
 H         2.4294658184        3.5167516979      -15.3599399108
 H         1.7940165770        4.3571873564      -16.8124419222
 H         8.4693423350        1.9174636618      -11.8657421905
 H         9.4545438391        0.4760932261      -12.2108888423
 H         7.7777119442        0.3380954161      -12.4647623170
 H        10.6172232697        2.2015642342      -13.8279322977
 H         9.5142061815        3.6247012672      -13.5476406742
 H         9.7634306624        2.8831354304      -15.1912675619
 H         5.1211371530       -4.2234072309      -15.6983263129
 H         6.7498338643       -3.9858768917      -14.9775893264
 H         6.6655557339       -3.8188072013      -16.6934621149
 H         3.5827326471       -2.1495447687      -15.5546313440
 H         4.4496404515       -2.2628041081      -17.1648715564
 H         4.2639632385       -0.6133485854      -16.1839000227
 H         1.6919557905       -5.1800730102      -11.2397181260
 H         1.6131309407       -4.6242782078      -12.9181867812
 H         0.1727326715       -4.8617306169      -11.9765305054
 H        -0.3772783059       -1.4132360874      -11.3802966542
 H        -1.1294982879       -3.0233817431      -11.2461830411
 H        -0.6872945084       -2.3650104765      -12.7621695589
 H         0.1581125006       -1.6093205456       -3.6782286844
 H         0.6796825525       -1.1261439340       -5.2726691866
 H         1.7198526968       -2.2886046825       -4.3420087337
 H        -0.5307621552       -5.2514849468       -4.2746940354
 H        -0.2364105001       -4.0727056822       -2.9414207721
 H         1.1471699771       -4.5312836508       -3.9840511447
 H        -6.5889557918       -1.7277525416       -5.2012231698
 H        -5.6884450945       -0.6180301572       -4.0602756642
 H        -7.3185651158       -0.9061375142       -3.8149169502
 H        -6.9607793404       -1.7777641126       -1.3416639682
 H        -5.1394586520       -1.6944706636       -1.4595174053
 H        -5.9880319903       -3.2249294497       -1.1923970913
 H       -11.2354812864       -8.6886941503       -0.5800437631
 H       -10.4027369789       -7.4078162982        0.1809440202
 H        -9.4631845089       -8.2281315640       -0.8520848165
 H       -11.6323695189       -8.3315407369       -3.2505242225
 H        -9.9060309388       -8.2077847213       -3.3122705314
 H       -10.9350612233       -6.8332503072       -4.0320413181
 H       -16.5409570619       -1.2308965288       -0.0827477838
 H       -15.1648363821       -1.1629958037       -1.3400603409
 H       -14.7069954481       -1.1756824550        0.2997123799
 H       -16.2050430812       -3.0070268224        1.7969318537
 H       -16.0648985054       -4.6242142548        1.0714111807
 H       -17.3907439511       -3.3966353548        0.6911824496
 H       -15.8171733910       -5.1699347104       -6.2643742217
 H       -17.0138038642       -6.0234209828       -7.2457948880
 H       -16.8389465979       -6.3285860579       -5.4771050728
 H       -18.8539019530       -2.9146349929       -6.7718121728
 H       -18.4940681994       -4.0044743768       -8.0346169289
 H       -17.2274301506       -3.0818689960       -7.3649009097
 H       -24.0636957828       -5.3970086816       -4.6490277961
 H       -24.3069538189       -3.8491036652       -5.1230245822
 H       -24.9317238214       -4.4491589596       -3.5539514193
 H       -23.9248017086       -2.6993513297       -2.1597052471
 H       -23.5244938357       -1.9777941036       -3.6145009207
 H       -22.2020109134       -2.2938311294       -2.4375355660
 Na      -19.0030922489       -3.8927361783       -2.0597902394
 Na        7.8692522727        1.6759001944      -17.8650176378
