232

 C       -22.9815285206       -6.2627947872       -2.0454860934
 C       -22.2831778582       -4.9998930949       -2.4187127626
 O       -21.3350983050       -4.6415716930       -1.6525672421
 C       -22.7999690188       -3.9459261699       -3.5497152915
 C       -21.5188214329       -3.8108639789       -4.5675201602
 O       -20.5439453218       -3.2491782330       -4.1312055303
 C       -21.4724923957       -4.2807338998       -6.0499578919
 C       -20.4141661506       -5.4162327837       -6.1960632594
 C       -19.1793451084       -5.2043506864       -5.2480947217
 O       -19.2028764120       -5.6234586210       -4.0837051984
 C       -17.8640202907       -4.4756938472       -5.7963056948
 C       -17.3598239090       -3.6162963881       -4.6184290927
 O       -17.8794802586       -2.5774308004       -4.3358047739
 C       -15.8884143420       -4.0687398562       -4.1185733099
 C       -15.4264448109       -3.1850335649       -2.9725435843
 C       -16.0352238924       -3.6152475459       -1.6853693247
 O       -16.9146662384       -4.4558267502       -1.6130817621
 C       -15.5085990534       -3.0739258016       -0.3145623484
 C       -14.0251166302       -3.6394514647       -0.4165101647
 O       -13.1449815249       -2.8964898090       -0.8088471958
 C       -13.7041773287       -5.0424607660        0.0527901524
 C       -12.2576302363       -5.3979695094       -0.1786652511
 C       -12.1098685155       -6.0687669608       -1.4686629175
 O       -13.0004482559       -6.0796452858       -2.2844019991
 C       -10.6721972914       -6.7830942813       -1.8577951748
 C        -9.5517910189       -5.8131298972       -1.7580569145
 O        -9.4648155539       -5.1000044437       -0.7861868198
 C        -8.4089115105       -5.8317282673       -2.8136921289
 C        -7.2504251059       -4.9408225353       -2.4686183927
 C        -7.2210418651       -3.6561347080       -3.3828159146
 O        -7.9774135644       -3.5586029247       -4.3240865741
 C        -6.1004705323       -2.6168916962       -3.2093167165
 C        -4.6635658356       -3.2204727629       -3.5532061997
 O        -4.0311748608       -3.6881065966       -2.6379660827
 C        -4.1366666195       -3.3632739221       -5.0358982845
 C        -2.7018651015       -3.8118754357       -5.1147545963
 C        -1.5611720387       -2.7296293582       -5.3046406278
 O        -1.7717210421       -1.6320585444       -5.7195015484
 C         0.0068542758       -3.2352786726       -5.1162016564
 C         0.6152343424       -3.7972244019       -6.4174379926
 O         0.8406676884       -4.9719411666       -6.5164892015
 C         1.0906302655       -2.8534960877       -7.4948593998
 C         0.5455230978       -3.0715234894       -8.8931823802
 C         1.6118944826       -2.8595163653      -10.0381286790
 O         2.7257350527       -2.5604465123       -9.7008375800
 C         1.1815902131       -2.9688029058      -11.5138359783
 C         2.1811383378       -2.0369873444      -12.3386169035
 O         1.9992727509       -0.8617336361      -12.4555962791
 C         3.4488244844       -2.6536258747      -12.9835507950
 C         4.3844272872       -1.4230782398      -13.3172938059
 C         5.6986891737       -1.8988931507      -13.9543866850
 O         6.5216456618       -2.3898927359      -13.2731300890
 C         5.6549851787       -2.1115141092      -15.5056980134
 C         6.8128660672       -1.2443633412      -16.1385400597
 O         6.4845998798       -0.4018650275      -16.9498105676
 C         8.3353850654       -1.6059209124      -15.9650697562
 C         8.8106519397       -0.9629194543      -14.6551487327
 C         9.0889242590        0.4535066583      -14.9169065179
 O         9.6627595946        0.8669112721      -15.9310444339
 C         8.6649482668        1.5340081982      -13.8442427116
 C         7.1894516394        2.0406488861      -14.1723070282
 O         6.2705561952        1.3333129295      -13.7977927167
 C         6.9050660991        3.4778000888      -14.7739521546
 C         5.3879678612        3.6280950472      -15.1301751453
 C         5.0060354182        2.9538394074      -16.4369538620
 O         5.8648165426        2.2613458661      -16.9610835780
 C         3.6452082550        3.1873995382      -17.1344682502
 C         4.1763462185        4.0632542508      -18.2855631688
 O         4.4014621909        5.2471632542      -18.2054522179
 C         4.3827334528        3.2793839321      -19.6345505024
 C         5.1471037751        4.3047906008      -20.5425985300
 C         5.1755455280        3.9437043990      -22.0403097786
 O         4.2741163826        3.2503769113      -22.4568114292
 C         6.4250733208        4.5394435596      -22.8856887783
 C         7.6679476876        3.6490412161      -22.5995309187
 O         8.0043217741        2.5844612845      -23.0849595287
 C         8.7210901674        4.4140398538      -21.7392324725
 C         9.9673650906        3.6667749599      -21.2189477638
 C         9.6138937429        2.6219806465      -20.2056314488
 O         9.3458630110        2.9679608020      -19.0435199696
 C         9.7005834872        1.0386723966      -20.5651184230
 C         8.2794846595        0.4040670988      -20.7322358121
 O         7.3773338947        0.5374050520      -19.9006434039
 C         7.8909356865       -0.3715812800      -22.0556333406
 C        10.6069858544        0.9088855861      -21.8042065054
 C        10.3163718381        0.1947827563      -19.2956658126
 C         6.0405017051        4.1729909722      -24.3933775500
 C         6.7364338732        6.0999945360      -22.7753890438
 C         2.8986836719        1.9805997101      -17.6169622543
 C         2.6369575317        3.9539963524      -16.2618099071
 C         8.6950157737        1.0007838232      -12.3511677817
 C         9.5896085226        2.8247023158      -14.0122584331
 C         6.0823134373       -3.4943678810      -15.8773033739
 C         4.3008764036       -1.8048185682      -16.2149885796
 C         1.2236257748       -4.4780637203      -11.7983307132
 C        -0.2217759611       -2.3862720555      -11.7743130940
 C         0.6867101930       -1.9211581972       -4.6510567526
 C        -0.0089899659       -4.2733132381       -4.0819754286
 C        -6.5032043211       -1.4440540257       -4.1951289430
 C        -6.0298362126       -2.1455280411       -1.7745012108
 C       -10.4183862001       -7.8464829958       -0.7313913156
 C       -10.8092477747       -7.4864668738       -3.2792341473
 C       -15.4717457172       -1.5065241835       -0.2361694657
 C       -16.4004602807       -3.6100805816        0.7989161308
 C       -16.8393880832       -5.6740432400       -6.2177097608
 C       -18.1676517574       -3.6848059892       -7.0202982952
 C       -24.0941480450       -4.4132407788       -4.2326557105
 C       -23.0157490486       -2.5906935416       -2.8073159888
 H       -23.8171347754       -6.0295701541       -1.3490690944
 H       -22.2935101319       -6.8757972773       -1.5733823246
 H       -23.3730766479       -6.8156691651       -2.8454184722
 H       -21.2108404755       -3.3379100068       -6.5313120922
 H       -22.4278038730       -4.5480552905       -6.3482799110
 H       -20.1257246969       -5.4348915130       -7.2413455356
 H       -20.8726592077       -6.3602463562       -5.9075357845
 H       -15.2803392890       -4.0131380526       -5.0326925323
 H       -15.8909373658       -5.0472495688       -3.7829797721
 H       -15.6274933465       -2.1289865689       -3.2229997469
 H       -14.3099893052       -3.1580795821       -2.8465304133
 H       -14.2973304603       -5.8714990006       -0.3948307122
 H       -13.9710170533       -5.0411931257        1.1471139496
 H       -11.9041027473       -6.0024119583        0.6290987831
 H       -11.5556407807       -4.4943551606       -0.3666535188
 H        -8.7034587186       -5.5780997666       -3.8152731659
 H        -8.0043761373       -6.8545734392       -2.8596863399
 H        -6.3114542985       -5.5400397901       -2.7232290876
 H        -7.2261283198       -4.6814316197       -1.3594092486
 H        -4.1946426322       -2.3350802831       -5.5276194876
 H        -4.8795560121       -4.0575062118       -5.5180508965
 H        -2.5464656616       -4.3090137665       -6.0115109628
 H        -2.4732623592       -4.5813963392       -4.3723509528
 H         2.1785483732       -2.9491538076       -7.6607875200
 H         0.9706693429       -1.8145013942       -7.1462093183
 H        -0.2172135752       -2.4769211690       -9.1715644691
 H         0.1548312360       -4.1481907088       -8.8767853517
 H         3.1922495933       -3.3807417781      -13.7098204903
 H         3.9008782366       -3.2749057652      -12.1988081136
 H         4.4935054770       -0.7875606983      -12.4221333095
 H         3.8232885923       -0.6697818090      -13.9133684352
 H         8.9652091201       -1.2116694974      -16.7937840213
 H         8.4424461036       -2.6710119718      -15.8497463964
 H         9.7667038477       -1.4860752780      -14.3359924229
 H         7.9827423689       -1.0507196587      -13.8970021411
 H         7.4489915178        3.5036150037      -15.7219622702
 H         7.2351066401        4.3082873965      -14.2155793966
 H         5.2477647390        4.6386314532      -15.5012081384
 H         4.8118827145        3.3843320588      -14.3295400436
 H         3.4261882722        2.8246002087      -20.0382882878
 H         5.0390415409        2.4490883222      -19.4498953221
 H         6.1699840648        4.3743944376      -20.2293328915
 H         4.5854890500        5.2464636968      -20.5503680785
 H         8.3453663072        5.0801691015      -21.0065455298
 H         9.0742377297        5.0743292501      -22.5363977889
 H        10.6518448018        4.4241870081      -20.8565905925
 H        10.5861440045        3.1203165216      -22.0072958222
 H         8.5702350762       -1.1777638628      -22.2324774906
 H         7.9618972471        0.0702112707      -23.0417910998
 H         6.9971926631       -0.8235849605      -21.7957596654
 H        10.4970585846       -0.0140802155      -22.1886850566
 H        11.6550249262        1.2326405668      -21.7353655154
 H        10.2728932629        1.4573568429      -22.7104403981
 H         9.8309540052       -0.7084289784      -19.1103980546
 H        10.4663226973        0.7405377896      -18.3396739294
 H        11.3324392207       -0.0637192578      -19.4873792458
 H         6.0347993468        3.1310048314      -24.6501883479
 H         6.7530986253        4.6409107489      -24.9822811969
 H         5.0738767746        4.6012779984      -24.7370890998
 H         7.3003649703        6.4610291508      -23.5969088696
 H         7.2272047166        6.2846842727      -21.8727696323
 H         5.7853468787        6.6177637945      -22.8252049846
 H         3.4593225863        1.0394474501      -17.8118930253
 H         2.3580529105        2.1957339207      -18.5461029610
 H         2.0591897542        1.6930344752      -16.9799073387
 H         3.1153540411        4.8907923705      -16.0330412864
 H         2.2326298741        3.3686039636      -15.4127695383
 H         1.8361206264        4.3158491226      -16.8639516669
 H         8.6761356297        1.8519584067      -11.7118093960
 H         9.5901710931        0.4784232485      -12.3049021422
 H         7.9470937451        0.2299111742      -12.2465068885
 H        10.5126697451        2.6084717093      -13.4794283446
 H         9.0421656285        3.7109073741      -13.5411801975
 H         9.7498666393        2.8570337309      -15.0469505084
 H         5.2561248136       -4.1081716300      -15.5514845432
 H         6.9824382054       -3.8948566864      -15.4437205528
 H         6.1753704783       -3.5221564145      -16.8896116830
 H         3.5923244375       -2.4779394110      -15.7747827813
 H         4.4806944517       -2.0449546803      -17.2898058701
 H         3.9564341519       -0.7808508202      -15.9533887000
 H         1.4956392466       -4.9438163748      -10.8837251933
 H         1.8845900813       -4.8393831456      -12.5716963661
 H         0.2280894998       -4.8272035671      -12.0418137049
 H        -0.3204186280       -1.3661510754      -11.4299920416
 H        -1.0118616137       -3.0228564827      -11.4128237565
 H        -0.4364870262       -2.3450447171      -12.8250825682
 H         0.3593936969       -1.7340708708       -3.5605719223
 H         0.2632222662       -1.1109574693       -5.2687006561
 H         1.7692249602       -1.9793142252       -4.8292875628
 H        -0.3347737621       -5.1252901425       -4.6322019775
 H        -0.7793660843       -4.0389125521       -3.2813075937
 H         1.0252983248       -4.3561968992       -3.6867440769
 H        -6.6149745302       -1.9354906272       -5.1266035699
 H        -5.8914739460       -0.5359616183       -4.2017507791
 H        -7.5260582102       -1.0969013495       -3.8654711232
 H        -7.0463433028       -2.0804958482       -1.2830023567
 H        -5.5779451654       -1.2029791116       -1.8608743939
 H        -5.4332301926       -2.7922178422       -1.2001333278
 H       -11.2623324799       -8.4460714868       -0.5618026214
 H       -10.1424450228       -7.4758332860        0.2486120518
 H        -9.4404235697       -8.3790119710       -0.9851933728
 H       -11.4805727184       -8.3885325615       -3.1113275650
 H        -9.8215653861       -7.8014798895       -3.5764470907
 H       -11.2405381544       -6.7669458024       -3.9300285395
 H       -16.5036006441       -1.2544319842        0.1519442433
 H       -15.3450491437       -1.0673602970       -1.2027211980
 H       -14.6254439923       -1.1131056547        0.3728334966
 H       -16.0994466495       -3.0252162898        1.7335746454
 H       -16.2668717499       -4.7202970216        1.0355853889
 H       -17.4566073899       -3.2149145124        0.7006418358
 H       -16.1627266857       -5.2952988664       -6.9313696243
 H       -17.3835841842       -6.4691154204       -6.8162213612
 H       -16.2374120578       -6.1404221415       -5.4092621364
 H       -19.0135624238       -3.0145654964       -6.8361381986
 H       -18.5637261157       -4.3582888779       -7.8093702772
 H       -17.3277161486       -3.2320562588       -7.5522711892
 H       -23.9201454306       -5.4292289696       -4.5264687235
 H       -24.4244299804       -3.9924740060       -5.1298558303
 H       -24.9516968529       -4.5265663001       -3.5679635862
 H       -23.4010411363       -2.7338081500       -1.8464854614
 H       -23.8297361288       -2.0563796774       -3.2786548658
 H       -22.0210373962       -2.0971294982       -2.7100481659
 Na      -19.1707482092       -3.9381072110       -2.2346605202
 Na        7.9270174962        1.5571350617      -17.8392025884
