232

 C       -23.2930918769       -6.0645385408       -1.8618564097
 C       -22.3540532559       -4.9128397247       -2.2712572730
 O       -21.2393479074       -4.9277590406       -1.7241730309
 C       -22.7427318074       -3.8646688154       -3.4219072823
 C       -21.5899847862       -3.4619043031       -4.4671648808
 O       -20.6540279795       -2.7824830941       -4.1227590509
 C       -21.5883784181       -4.1030733181       -5.9713732601
 C       -20.6333113677       -5.3363503287       -6.1530930897
 C       -19.3820977038       -5.2662208260       -5.3440966607
 O       -19.3379965320       -5.8460306407       -4.2464714459
 C       -18.0524595109       -4.7607468680       -5.8567335456
 C       -17.2609281067       -3.9537765875       -4.6606411564
 O       -17.7975789923       -3.0412174392       -4.1761207281
 C       -15.7173230891       -4.0332078048       -4.3652110886
 C       -15.5584973322       -3.0867898969       -3.0525779278
 C       -16.1705548152       -3.4030560221       -1.7434376311
 O       -17.3188017988       -3.8186492154       -1.6046665955
 C       -15.4477335868       -3.1987476992       -0.4215021759
 C       -13.9709292402       -3.7359260926       -0.4427842158
 O       -13.1522402052       -3.1221333781       -1.1038241251
 C       -13.5607478672       -4.8925210417        0.5256454926
 C       -12.2300081386       -5.5197068211        0.2901584011
 C       -12.1654060316       -6.0885452585       -1.1410152984
 O       -13.1042557800       -6.2326547886       -1.9285160250
 C       -10.7062438759       -6.6703490073       -1.5822006581
 C        -9.4777331993       -5.6109765978       -1.5764652732
 O        -9.3301807505       -4.9598648356       -0.5793678041
 C        -8.3802453849       -5.6380000198       -2.6851619808
 C        -7.1596298004       -4.6777838063       -2.4947840302
 C        -7.1742098567       -3.4677794044       -3.4403385259
 O        -8.1042016612       -3.2933695316       -4.1966525458
 C        -5.9991133701       -2.4220818019       -3.3204875335
 C        -4.6842812963       -3.1938704371       -3.5610152843
 O        -4.2469818779       -3.9024914886       -2.6574113204
 C        -4.0512876376       -3.1506537497       -4.9884278794
 C        -2.6793730005       -3.8354958367       -5.1136367930
 C        -1.5707882530       -2.7577628105       -5.2462845500
 O        -1.8519553286       -1.6347972495       -5.5551109245
 C        -0.0634498777       -3.0237862981       -4.9946834254
 C         0.4323301710       -3.6721574687       -6.4451632830
 O         0.3046916431       -4.8210518288       -6.7421769676
 C         0.9387700523       -2.6771963626       -7.4972424205
 C         0.8244462949       -3.1936990991       -8.9903592340
 C         1.8804270400       -2.8151793875      -10.0392451056
 O         3.0104591726       -2.5204331096       -9.7513239624
 C         1.3468481047       -2.8564409313      -11.5303777664
 C         2.2294209060       -1.8505044288      -12.4561909523
 O         1.7952141466       -0.8043824274      -12.8911555724
 C         3.5917532347       -2.4718168451      -12.8374897024
 C         4.6426023511       -1.5098140961      -13.4495794074
 C         5.6570435560       -2.2819523410      -14.2981837476
 O         6.6834044730       -2.7879082638      -13.9249245281
 C         5.5793567398       -2.4010010521      -15.8783433230
 C         6.8703848448       -1.4717982841      -16.3588712177
 O         6.4880462276       -0.4673336713      -16.9679686535
 C         8.3158206703       -1.6269356478      -16.0285072830
 C         8.7337394686       -0.7330451882      -14.8540358347
 C         9.0096909142        0.7706551415      -14.9631024411
 O         9.3726480917        1.4473492211      -15.9426007761
 C         8.6882578022        1.6249074078      -13.6423167239
 C         7.2106187087        1.9236408443      -14.0001192338
 O         6.4956151553        0.9452313261      -14.2022754807
 C         6.6414993761        3.4382044494      -14.0169093863
 C         5.2595488509        3.4247625420      -14.7239199346
 C         5.2608250251        3.0277102632      -16.2506269300
 O         6.2015922784        2.4744326731      -16.7479936897
 C         3.7842831973        3.1368265823      -16.9124752978
 C         4.1829088753        4.1187315701      -18.0787175836
 O         4.1633202730        5.3209367793      -17.9579375622
 C         4.4162660763        3.3607155670      -19.4944731049
 C         5.3537173300        4.1751634622      -20.4341301154
 C         5.2341047583        3.6262751554      -21.9175543423
 O         4.3246773974        2.9251294436      -22.3129136637
 C         6.3137029498        4.1364131764      -23.0415567475
 C         7.7701977260        3.6893422055      -22.6479342341
 O         8.2903272494        2.6529159935      -22.9264761279
 C         8.7148348825        4.6026223677      -21.8180892955
 C         9.9518237308        3.8025738944      -21.2663006771
 C         9.6056305591        2.6442796036      -20.4203317783
 O         9.1258595597        2.8706952216      -19.2812080711
 C         9.8328619230        1.0760696168      -20.7350614093
 C         8.3276148720        0.6119531062      -20.7751602854
 O         7.5479481516        0.8418123749      -19.8362882458
 C         7.7315776772       -0.0894485279      -21.9785900046
 C        10.5664723514        0.7178457336      -22.0301870285
 C        10.6319580114        0.4454039017      -19.5839495109
 C         6.0101957020        3.5076246315      -24.3952140551
 C         6.0270884852        5.7323086015      -23.1969832069
 C         3.3475970838        1.6883530042      -17.1242263712
 C         2.5582718990        3.7613141842      -16.1508680193
 C         8.8439393762        0.8148222799      -12.2520731702
 C         9.6296586155        2.9847806863      -13.7932778925
 C         5.8218398154       -3.8487576707      -16.2448364049
 C         4.3487579319       -2.0282132832      -16.7297890706
 C         1.4944333069       -4.3219439520      -12.0249312910
 C        -0.1069171535       -2.3804470816      -11.7190264225
 C         0.6496854491       -1.7318529867       -4.6253623835
 C         0.1158769410       -4.1292016650       -3.9889111670
 C        -6.1331610499       -1.3558431834       -4.3563242164
 C        -5.9723972323       -1.8735704998       -1.8118549848
 C       -10.3040734488       -7.9778497812       -0.7387221405
 C       -10.8681247912       -7.0944405675       -3.1371913580
 C       -15.3867316322       -1.6265441841       -0.2447835593
 C       -16.2836090273       -3.6731723705        0.7951916555
 C       -17.2111686798       -5.9490789802       -6.3852532335
 C       -18.1633009096       -3.6502740325       -6.9501952149
 C       -23.8734519517       -4.4419126014       -4.2283148667
 C       -23.1374017664       -2.6036011359       -2.7152921770
 H       -24.2793325526       -5.5622131102       -1.4809332732
 H       -22.8919093364       -6.7600229986       -1.1487001228
 H       -23.6180322327       -6.6548231835       -2.7543688260
 H       -21.3782293802       -3.3057188166       -6.7491242767
 H       -22.6200941107       -4.4184564160       -6.1587380011
 H       -20.3356081778       -5.4445421356       -7.1971007093
 H       -21.2871441692       -6.1391251823       -5.7942745072
 H       -15.2345995806       -3.5102176705       -5.2507191315
 H       -15.2632737107       -5.0471711970       -4.1921032006
 H       -15.8376705927       -2.1065099665       -3.3479416216
 H       -14.4146541597       -2.9038299021       -2.9059022012
 H       -14.3704112450       -5.6079230041        0.4592201854
 H       -13.4889306360       -4.4387629704        1.5205387381
 H       -12.1411079363       -6.3943249162        0.9175642705
 H       -11.4748225379       -4.7456756624        0.4564284361
 H        -8.8046124679       -5.5938400796       -3.7356344873
 H        -7.9875741625       -6.6601864474       -2.5466766384
 H        -6.2838085183       -5.2458083708       -2.8035785321
 H        -7.1275503290       -4.4030977267       -1.4952623383
 H        -3.9429695681       -2.0967381405       -5.1430438560
 H        -4.6795592267       -3.5685198649       -5.7399078121
 H        -2.7156834176       -4.4046959024       -6.1007232816
 H        -2.4557064194       -4.6490804779       -4.3883568952
 H         2.0219748143       -2.6316130704       -7.2455345104
 H         0.5575562460       -1.6370245138       -7.4749411056
 H        -0.1513260278       -3.0367140961       -9.3244387598
 H         0.9243624858       -4.3076931029       -9.0938332668
 H         3.3165218902       -3.3166879540      -13.5874929612
 H         3.9517939451       -2.9902146505      -11.9744964066
 H         5.1669313542       -0.8887876769      -12.7339139554
 H         4.1742817870       -0.6945734014      -14.0113736195
 H         8.9368165070       -1.3278019545      -16.9273433223
 H         8.6041306840       -2.6937698618      -15.9505288064
 H         9.6966515323       -1.0776263366      -14.4708216082
 H         8.0183912559       -0.8967967459      -14.0961182958
 H         7.2172434909        4.2293187775      -14.5543297658
 H         6.4755716282        3.7779481126      -12.9482196555
 H         5.1307767827        4.5830990345      -14.8348392623
 H         4.4256166398        2.8051198790      -14.2222123052
 H         3.4220638294        3.3411669846      -19.8374512011
 H         4.8028267073        2.2915382184      -19.3566854812
 H         6.4407976895        4.2767065117      -20.2609441952
 H         4.8851162306        5.2258108858      -20.3502155185
 H         8.0842905893        5.1976925611      -21.0871291766
 H         9.1841822490        5.3609837893      -22.4363996116
 H        10.6839084166        4.4881132487      -20.8063267280
 H        10.6197272184        3.4443059259      -22.1298094994
 H         8.1621547310       -1.1146219105      -22.3165159361
 H         7.8572302065        0.5365704823      -22.8947228483
 H         6.6635751389       -0.2850926820      -21.7507479782
 H        10.5314690317       -0.3148503026      -22.2617770087
 H        11.6044987355        1.0545330129      -21.9124195023
 H        10.3617791858        1.2470224122      -22.9702026003
 H        10.9494209330       -0.5621754331      -19.8700052855
 H        10.1887692539        0.2997983871      -18.5495806655
 H        11.5913168512        0.9818886380      -19.4105451046
 H         5.8915426264        2.3843610229      -24.2636158767
 H         6.7515463657        3.6835359445      -25.1086302154
 H         5.0510302273        3.8602801427      -24.8310368597
 H         6.6826631379        6.1619165592      -23.9606112241
 H         6.0803679216        6.2602982962      -22.2033013280
 H         4.9654622965        5.8852245362      -23.5544186453
 H         3.9422482614        1.0925330557      -17.8692885618
 H         2.3554377665        1.5279495848      -17.3770763027
 H         3.4966624696        1.1759637047      -16.1820297096
 H         2.6990839596        4.8155341786      -16.2267576540
 H         2.4384955288        3.3664737681      -15.1289953666
 H         1.5992765506        3.5408373344      -16.6364726696
 H         8.5287143710        1.6246570308      -11.5580660515
 H         9.8192761808        0.4526695662      -12.0894829618
 H         8.0623282911       -0.0133639169      -12.2653865086
 H        10.6405007807        2.6125664660      -13.8036302081
 H         9.5130635907        3.5873874886      -12.8941842354
 H         9.3904409089        3.4548508284      -14.6802316891
 H         5.0060103537       -4.6318264220      -15.9825483078
 H         6.6846207494       -4.2181113332      -15.5899517817
 H         6.0686805497       -3.9597357758      -17.3090824189
 H         3.4097256199       -2.2856902358      -16.2751768658
 H         4.4342574380       -2.4668068052      -17.7215030387
 H         4.4527409702       -0.9115256863      -16.8992947837
 H         0.7016148228       -4.9572072587      -11.6005009198
 H         2.5110829877       -4.8260529744      -11.9167727624
 H         1.3741249074       -4.1742208580      -13.0944684683
 H        -0.1666164059       -1.3077430029      -11.5378720037
 H        -0.8683557571       -2.9158416786      -11.0920968151
 H        -0.4505900071       -2.5386394121      -12.7414584471
 H         0.3899031274       -1.4712205508       -3.6112859201
 H         0.3793103699       -1.0109540251       -5.3335247995
 H         1.7093500542       -1.8710211587       -4.6997827942
 H        -0.4719403823       -4.9200685991       -4.3717962490
 H        -0.2088937007       -3.7751079846       -3.0132622047
 H         1.1250286601       -4.5183869831       -4.0082649819
 H        -6.2507239963       -1.8724072992       -5.2801327125
 H        -5.2054337055       -0.7671013675       -4.2694496245
 H        -6.9467076217       -0.6767345019       -4.2305542073
 H        -6.8538460794       -2.2794225309       -1.2226691709
 H        -5.9613886595       -0.7918730990       -1.8767230717
 H        -5.1033719556       -2.2378672526       -1.2573048046
 H       -11.1188095147       -8.7076181717       -0.6818631591
 H       -10.1375561519       -7.7753408017        0.2979937181
 H        -9.3881193465       -8.4859992671       -1.1415277334
 H       -11.8713686567       -7.5054023704       -3.2608006674
 H       -10.0248431416       -7.6972745203       -3.4188137810
 H       -10.8355971973       -6.1935225446       -3.7443057625
 H       -16.3426680844       -1.1388712960       -0.6051853074
 H       -14.5823208387       -1.2363226349       -0.8199169595
 H       -15.3302725753       -1.4952633848        0.8332340450
 H       -15.6987070184       -3.7221917842        1.6461172330
 H       -16.7479771590       -4.5969182291        0.6396403382
 H       -17.0637994317       -2.9912162296        0.9214663030
 H       -16.3783167814       -5.7609759119       -6.9568136623
 H       -17.8418641236       -6.6117618350       -7.0755222355
 H       -16.9184681302       -6.5318555772       -5.5233479964
 H       -18.6841962610       -2.7975928274       -6.6589934273
 H       -18.7057695876       -3.9696008906       -7.8437739224
 H       -17.1242387608       -3.4890614866       -7.2698822477
 H       -23.7462972032       -5.3527545420       -4.7242563265
 H       -24.1634312531       -3.7073829862       -5.0210912449
 H       -24.8552373400       -4.6297178439       -3.6686842572
 H       -23.8862757888       -2.7959566278       -1.9753419447
 H       -23.6791157809       -1.9783533035       -3.4389442420
 H       -22.2906045393       -2.1354587929       -2.1910584997
 Na      -19.2151289815       -4.1897500536       -2.6896631888
 Na        7.9162150296        1.2779651712      -17.5526371170
