232

 C       -23.3854396880       -5.8895581570       -1.8056719069
 C       -22.2982346518       -4.9457624153       -2.3848204197
 O       -21.1671343648       -4.9717342182       -1.8652380562
 C       -22.7732707625       -3.8845289335       -3.4628538214
 C       -21.6117772744       -3.5067743921       -4.4708460199
 O       -20.8043221254       -2.6541170645       -4.1710969595
 C       -21.6218843139       -3.9541471177       -5.9096964419
 C       -20.7169528220       -5.2533869096       -6.1466638700
 C       -19.3406783260       -5.3616164445       -5.3342004106
 O       -19.3753485691       -5.9173972605       -4.2447875178
 C       -17.9147477142       -4.8402291483       -5.8387273838
 C       -17.2252813691       -3.9282824856       -4.7430388942
 O       -17.9280674673       -3.0715875224       -4.2236089350
 C       -15.7630487600       -4.0610433513       -4.3213900628
 C       -15.5043169818       -3.1056238376       -3.0685659314
 C       -16.2474444790       -3.4890703775       -1.7290050959
 O       -17.4276740080       -3.6663615139       -1.5720797335
 C       -15.3925488124       -3.1984474501       -0.3917386999
 C       -13.8857572921       -3.7243172691       -0.3940177030
 O       -13.0799637365       -3.3172354741       -1.1701117180
 C       -13.4997489966       -4.7946855586        0.6907837273
 C       -12.1380041393       -5.5549648918        0.3302956252
 C       -12.0583970407       -6.1185072203       -1.0665459919
 O       -13.0607399450       -6.1631333823       -1.6870046260
 C       -10.6722413644       -6.6280653022       -1.6477905802
 C        -9.4696483710       -5.6195560271       -1.4407166952
 O        -9.4003466945       -4.9099415345       -0.4766810340
 C        -8.3390425491       -5.6166479623       -2.5959822763
 C        -7.2247273226       -4.5905190619       -2.4558299463
 C        -7.3092143554       -3.3726205658       -3.4685208836
 O        -8.1694765620       -3.2159850803       -4.2843087667
 C        -6.0017130678       -2.4094379083       -3.3113196910
 C        -4.6736606957       -3.3073333143       -3.5109440924
 O        -4.2180496511       -4.0219689267       -2.6650659019
 C        -4.0429693229       -3.2002126831       -4.9498914997
 C        -2.6482654657       -3.7561273394       -5.0973565323
 C        -1.5811525041       -2.6932571262       -5.2508120608
 O        -1.8253116099       -1.5431843385       -5.5896526482
 C        -0.0124242819       -3.0641314578       -5.0558267330
 C         0.3919852398       -3.5539866890       -6.5111121254
 O         0.0141536150       -4.7034652840       -6.7496106830
 C         1.0012639610       -2.5922952310       -7.5956879045
 C         0.8818044429       -3.3071892031       -8.8764104126
 C         1.8416099409       -2.7450480705      -10.0222082624
 O         2.9883815511       -2.4666693578       -9.7730871334
 C         1.3818715175       -2.7703923639      -11.6221113439
 C         2.2677839288       -1.8631409748      -12.4977445427
 O         1.8292597311       -0.8571848188      -12.9401045883
 C         3.7382998357       -2.4458711559      -12.8326845397
 C         4.6933869892       -1.5304429865      -13.6197251350
 C         5.7390658899       -2.4344909254      -14.4187807534
 O         6.7174365598       -2.8214869720      -13.9077702307
 C         5.6546778259       -2.5147580662      -16.0326464780
 C         6.7960143958       -1.4758322066      -16.4355274522
 O         6.5331170677       -0.4895796638      -17.0375688997
 C         8.2789418537       -1.6909120988      -16.0429283425
 C         8.7445338298       -0.7309946951      -14.8703751353
 C         9.0478928758        0.7956425850      -14.9240490799
 O         9.3672147480        1.4414384759      -15.8855846608
 C         8.7116940404        1.6876650857      -13.5979349920
 C         7.1188264264        1.9528383026      -13.9056560044
 O         6.4511416423        0.9964083036      -14.2273492952
 C         6.5409148450        3.3140538479      -13.7225487291
 C         5.2257817370        3.3771335940      -14.5874210056
 C         5.2469576983        3.0185104470      -16.1010545301
 O         6.3019288227        2.7225407109      -16.6343746691
 C         3.9254887783        3.0632314252      -16.7972287541
 C         4.0963186249        4.0067974882      -18.1282730812
 O         4.1175194018        5.2108791930      -17.9921133949
 C         4.4276335673        3.3209248350      -19.4760760110
 C         5.4234763475        4.0972174747      -20.4307252904
 C         5.1861712292        3.5989239768      -21.8755305942
 O         4.4235810496        2.7245664227      -22.1222971156
 C         6.2550501416        4.0299330797      -23.0396675357
 C         7.6993313449        3.7722777316      -22.5677362263
 O         8.1580456484        2.7212627966      -22.9706388555
 C         8.5905323553        4.7365667151      -21.6824829827
 C         9.8832973600        3.8755977587      -21.3943926636
 C         9.5301513994        2.6260584744      -20.4223268880
 O         9.0312553885        2.8940128734      -19.3350598126
 C         9.8628817723        1.0317254618      -20.7400014584
 C         8.3114664703        0.4913897599      -20.7639424459
 O         7.6225311576        0.8291581156      -19.8703575511
 C         7.6422716834       -0.1055150466      -22.0590797995
 C        10.5137562682        0.8792898371      -22.1297370976
 C        10.6875791066        0.5010849092      -19.5942651332
 C         6.0436101747        3.2764851891      -24.3153657296
 C         6.2437222245        5.5558245365      -23.3456088312
 C         3.4611338391        1.6608047966      -17.2007473222
 C         2.7522540276        3.7521141511      -15.9954798513
 C         8.8808129994        0.8980704733      -12.3658282788
 C         9.6313631535        2.8920436860      -13.6384746588
 C         5.9727264602       -3.9523031311      -16.4672001129
 C         4.2019345566       -2.0842147945      -16.7378843730
 C         1.4948177694       -4.2709289810      -12.1033074933
 C        -0.1124886970       -2.3930477352      -11.6566404760
 C         0.6327945057       -1.7172097340       -4.6710039414
 C         0.2749685481       -4.2635204842       -3.9148722285
 C        -6.2185066759       -1.1996843830       -4.3674697350
 C        -5.8706903322       -1.8175821461       -1.8743390671
 C       -10.3185990810       -7.7891377713       -0.8142187056
 C       -10.8290782625       -7.0886804925       -3.1988172708
 C       -15.2665276032       -1.5825758846       -0.3124636590
 C       -16.2461929676       -3.7527364824        0.7581028058
 C       -17.1926165406       -6.0268382293       -6.4799533334
 C       -18.1938846251       -3.7269146233       -6.9642406250
 C       -24.0350273685       -4.4705946035       -4.1823475593
 C       -23.2614127367       -2.5903989114       -2.5859285275
 H       -24.3714184950       -5.4024447504       -1.7809806844
 H       -23.1158282120       -6.3537377461       -0.8293455145
 H       -23.4865353804       -6.7264154569       -2.4835751615
 H       -21.1078990318       -3.1927233597       -6.4848169804
 H       -22.5695367874       -4.0137101834       -6.3613399552
 H       -20.4877716241       -5.2055138547       -7.2018032531
 H       -21.3878724648       -6.0691747810       -5.9230518095
 H       -15.1062055914       -3.7466081018       -5.2048241416
 H       -15.5225726490       -5.0548923843       -4.0062552393
 H       -15.7157918983       -2.0117228645       -3.2997621969
 H       -14.4161420848       -3.0641345552       -2.9601688800
 H       -14.3671628629       -5.4632182472        0.5906848657
 H       -13.3705843679       -4.3515663607        1.6954208278
 H       -11.9572991523       -6.3307764767        1.0218899649
 H       -11.3847730574       -4.7058169757        0.3467127734
 H        -8.9184062742       -5.3378420965       -3.5165916666
 H        -7.9432036225       -6.6699567862       -2.7644054616
 H        -6.2458230496       -5.0792147343       -2.5728276922
 H        -7.3803818037       -4.1573918386       -1.4405481958
 H        -4.0854329578       -2.1070274564       -5.1745443423
 H        -4.6504368516       -3.7696960071       -5.6815989593
 H        -2.6171114974       -4.4159604366       -5.9053692427
 H        -2.2801488273       -4.4018781152       -4.2487456556
 H         2.0163811859       -2.3130874489       -7.2516383498
 H         0.3847011316       -1.6597341340       -7.7213535929
 H        -0.1427058948       -3.3610945000       -9.1399347463
 H         1.1844018772       -4.3964209537       -8.8969259124
 H         3.6226053130       -3.3820261412      -13.3614279473
 H         4.2376815179       -2.7061046392      -11.8483273119
 H         5.2978820043       -0.8434692752      -12.9737373357
 H         4.2015978346       -0.7444879772      -14.2579269386
 H         8.8882688439       -1.5960278687      -16.9628213241
 H         8.4769533915       -2.7043304330      -15.8149708936
 H         9.7033800534       -1.1418182505      -14.4810652266
 H         8.0112547766       -0.9387642614      -14.0460704598
 H         7.2432214125        4.1128845599      -14.0456473786
 H         6.2952615649        3.4532934473      -12.6960834457
 H         4.8620808029        4.4294491066      -14.5112000320
 H         4.5607581471        2.6172077606      -14.2641096720
 H         3.4401902172        2.9750798518      -19.9219416590
 H         5.0174195560        2.5045251775      -19.1715911375
 H         6.4882898801        3.9202065229      -20.2845221786
 H         5.3122561759        5.2123895233      -20.3720117335
 H         7.9982814714        4.9669357780      -20.8101808962
 H         8.8558721325        5.7156213976      -22.1371081383
 H        10.6201617873        4.4642668637      -20.7843750568
 H        10.5693451386        3.7427924615      -22.3126750296
 H         8.0948161172       -1.0163988837      -22.3134277319
 H         7.6188760280        0.5014582385      -23.0368694778
 H         6.6572880537       -0.4378532917      -21.7236153872
 H        10.3086581825       -0.0345350392      -22.5452208447
 H        11.5931793235        1.0037151331      -22.2294660125
 H        10.1995156250        1.6517553963      -22.8435418727
 H        11.1350114496       -0.4692247968      -19.6606473938
 H        10.1167561567        0.4576807915      -18.6455254343
 H        11.5377718681        1.1733109615      -19.3967067376
 H         6.2230048696        2.2692786138      -24.1578033400
 H         6.6949886272        3.6234290619      -25.1108093841
 H         5.0033880351        3.3644559708      -24.6981412667
 H         6.9539212751        5.8071363826      -24.1440428829
 H         6.3254882455        6.1802662886      -22.5154771246
 H         5.2232726163        5.7141472256      -23.7228321164
 H         3.9410918453        1.1505927499      -18.0130391343
 H         2.3624975226        1.6117669055      -17.4419830649
 H         3.5918628286        1.0237766976      -16.3362046747
 H         2.9527906355        4.8397066885      -15.9352467440
 H         2.6587956131        3.2764487534      -15.0034765965
 H         1.8152399843        3.5643477573      -16.4497736843
 H         8.6210831267        1.5589467948      -11.5574471422
 H         9.8899214758        0.4870175376      -12.2794538003
 H         8.1121996878        0.1447012557      -12.4580131167
 H        10.6533906740        2.6278143281      -13.6452374261
 H         9.4285665693        3.5500704355      -12.7624691112
 H         9.3273845062        3.3267595919      -14.5622213921
 H         5.0835911299       -4.6114713858      -16.3104749733
 H         6.7355382430       -4.4442354867      -15.7939837562
 H         6.2227056108       -4.0362243698      -17.5293900696
 H         3.2746098024       -2.3969336877      -16.1861374118
 H         4.1402932048       -2.4158509936      -17.8545906498
 H         4.3101968412       -1.0033455216      -16.7806931249
 H         0.5189164493       -4.7438935869      -12.0626013287
 H         2.1309757845       -4.7809704501      -11.4130651991
 H         2.0197518745       -4.3838413465      -13.0782263883
 H        -0.3023202697       -1.4441962511      -11.1032325460
 H        -0.7313329169       -3.1787553427      -11.2081757347
 H        -0.4366816261       -2.2114130853      -12.6892432906
 H         0.0203516350       -1.3458331070       -3.8007279462
 H         0.5927126013       -1.0915648371       -5.5305871666
 H         1.6365398501       -1.7500328446       -4.3274708001
 H        -0.2451227934       -5.1691035889       -4.0468111502
 H         0.1184347740       -3.7316714844       -2.9480507924
 H         1.3305904192       -4.5517476403       -4.0433271890
 H        -6.5001434337       -1.6151177220       -5.2817026341
 H        -5.4258602050       -0.5043879981       -4.3863599110
 H        -7.1331871885       -0.6758580773       -4.0004540594
 H        -6.8146743526       -1.8533898811       -1.2452608542
 H        -5.6291905935       -0.8042529277       -2.1606531926
 H        -5.0968390102       -2.2320555614       -1.2654891684
 H       -10.9521260765       -8.6379295903       -0.9246154306
 H       -10.4693941658       -7.4922736695        0.2294281423
 H        -9.2578425778       -8.1993627259       -0.9369473381
 H       -11.9035110238       -7.4255003412       -3.1763820727
 H       -10.0636647167       -7.7702603596       -3.5229511699
 H       -10.8025692821       -6.2561285887       -3.8398390882
 H       -16.1015068000       -1.1466014669       -0.9059062492
 H       -14.4049532136       -1.3418500996       -0.9195387364
 H       -15.3700729201       -1.2148535597        0.7662254583
 H       -15.6983542233       -3.6292376090        1.6700178574
 H       -16.4606132754       -4.7981911898        0.6159296012
 H       -17.2463297326       -3.3472094812        0.7464792146
 H       -16.1175333330       -6.0258348640       -6.6144592815
 H       -17.6106761531       -6.2148110605       -7.4610855085
 H       -17.4057686475       -6.9178636549       -5.8386851876
 H       -18.7827624326       -2.8102006109       -6.5144568570
 H       -18.9287132610       -4.0930016187       -7.6483226931
 H       -17.3282231452       -3.4313405938       -7.4631854873
 H       -23.9804767180       -5.5361997111       -4.5401691965
 H       -24.2722805894       -3.9108246552       -5.0458999082
 H       -24.9691026608       -4.4737109558       -3.6483864717
 H       -24.2232779711       -2.7002104475       -2.2043369865
 H       -23.3352535793       -1.8295675794       -3.3493833216
 H       -22.5998482604       -2.3006003481       -1.7545925112
 Na      -19.2449173030       -4.2424487666       -2.6898364658
 Na        7.8963340428        1.4091331506      -17.7171049605
