232

 C       -23.5580591952       -5.6499710348       -1.4929424757
 C       -22.5678264770       -4.9946851017       -2.4052651275
 O       -21.3454878986       -5.2406002919       -2.3189447739
 C       -22.9910440249       -3.9233875743       -3.4813896837
 C       -21.7509921212       -3.4675197550       -4.2740887337
 O       -20.9124879066       -2.7562969243       -3.7436803164
 C       -21.4789053342       -3.8158531770       -5.7206186611
 C       -20.7782543060       -5.2103648520       -5.9854896164
 C       -19.3824170918       -5.2817013043       -5.4002165176
 O       -19.3114220828       -5.9960928134       -4.3868518731
 C       -18.0405501636       -4.7864190796       -6.0044238756
 C       -17.4818003390       -3.8736443016       -4.8249783475
 O       -18.0121541875       -2.8781606171       -4.4578061632
 C       -16.2523041825       -4.5051038952       -4.1318515636
 C       -15.5326945910       -3.5282716953       -3.0926349907
 C       -16.0919969953       -3.5196846744       -1.6762015077
 O       -17.2581113991       -3.8500292417       -1.5539389952
 C       -15.2178379431       -3.1839537342       -0.4035196807
 C       -13.8246305337       -3.8554502782       -0.5231035366
 O       -13.0905290585       -3.5309548310       -1.4022022931
 C       -13.3292341890       -4.6917770324        0.7320764025
 C       -11.9113870791       -5.1785889199        0.4160431263
 C       -12.0083880970       -5.9998409152       -0.9079811663
 O       -13.0418784161       -6.2491987064       -1.4530158810
 C       -10.6096270005       -6.6097836816       -1.5432878099
 C        -9.4753966155       -5.5228110432       -1.3076516983
 O        -9.4074956779       -4.8071618548       -0.3376528338
 C        -8.5796529852       -5.2249512470       -2.4975904036
 C        -7.4261302931       -4.1301227749       -2.0997523272
 C        -7.2867718537       -3.1967371462       -3.3250601715
 O        -7.9984250760       -3.2440211226       -4.2875100804
 C        -6.0045927379       -2.2984348214       -3.3369552893
 C        -4.7479085467       -3.2680946634       -3.6491287754
 O        -4.4638110024       -4.1313669857       -2.8586838395
 C        -3.9902464551       -3.1960666328       -4.9816616220
 C        -2.5421998568       -3.5880192645       -4.7289946369
 C        -1.5538389684       -2.4960329975       -5.2236640593
 O        -1.8945436641       -1.3632436913       -5.5312333735
 C        -0.0034930966       -2.9293091293       -5.2564962482
 C         0.1874422894       -3.4496473818       -6.6931516918
 O        -0.5574491000       -4.3728875777       -6.9618406412
 C         1.0544754851       -2.7716963858       -7.8106869159
 C         1.1479401144       -3.5171993653       -9.1044865540
 C         2.0116633099       -2.6953603196      -10.0850919017
 O         2.9868922028       -2.0300483297       -9.7891658957
 C         1.5622053281       -2.8387409908      -11.6033887602
 C         2.5224496421       -2.0549146539      -12.4619016880
 O         2.1939280086       -1.0944303471      -13.0833589620
 C         3.9855812512       -2.5329416490      -12.5238530400
 C         4.4947996548       -1.8315145171      -13.8533464414
 C         5.7224477288       -2.5265123905      -14.5392451883
 O         6.4553546731       -3.1664541258      -13.8801579923
 C         5.7965690249       -2.3804971661      -16.1778710291
 C         6.8730914694       -1.2342176817      -16.5821214051
 O         6.4715740633       -0.2965734940      -17.2422095033
 C         8.3346918826       -1.4579031858      -16.2116606570
 C         8.6027760450       -0.9461655028      -14.7932927510
 C         8.8393192756        0.5886966216      -14.8960930140
 O         9.1874620169        1.1315307984      -15.9393880707
 C         8.6667884639        1.4526688317      -13.6726559192
 C         7.0874889189        1.7115812903      -13.7755014277
 O         6.3361846136        0.7800045807      -13.8898620657
 C         6.5388111897        3.1776443681      -13.4891023362
 C         5.1504238172        3.3334274983      -14.1513392604
 C         5.4151193404        3.3463800759      -15.8110105491
 O         6.5731657996        3.1915962959      -16.1319891797
 C         4.1054723289        3.1126473470      -16.7406025956
 C         4.3211505080        3.8428835781      -18.0685192181
 O         4.0428180383        5.0325457655      -18.0683021975
 C         4.7687227208        3.0686848634      -19.2412473113
 C         5.2241947349        4.0533778223      -20.3492129297
 C         5.3786998986        3.2615646022      -21.7000148880
 O         4.6211252051        2.3511750346      -21.8587879738
 C         6.1432365883        3.8624398244      -23.0124985708
 C         7.6060362279        3.5625900237      -22.6895778750
 O         8.2248869262        2.5768830355      -23.0023055096
 C         8.4997083493        4.7057976757      -21.9427099758
 C         9.7373066531        4.0718322999      -21.2176902840
 C         9.4259453186        2.7842159959      -20.3899976248
 O         8.9692832489        3.0609298131      -19.2801488110
 C         9.6891273302        1.2783517352      -20.8429285777
 C         8.3922245549        0.4172536465      -20.9675590196
 O         7.6088348305        0.2463581846      -20.0578452616
 C         8.0084221811       -0.3553902595      -22.2910954929
 C        10.5251461272        1.2415275315      -22.1579989844
 C        10.4320572966        0.5483996171      -19.7860712818
 C         5.7672327931        3.0117213080      -24.2433016909
 C         5.8404269172        5.3706855195      -23.2313726366
 C         3.9248599172        1.5880167492      -16.7356456703
 C         2.7232727217        3.6951928371      -16.1535022232
 C         8.8696201854        0.6979898799      -12.4269204866
 C         9.3872060347        2.7996058450      -13.7990031514
 C         6.5967287626       -3.5932098566      -16.5680909227
 C         4.4518903526       -2.2537357556      -17.0367803915
 C         1.3851499237       -4.3725781240      -12.0159405829
 C         0.2225568116       -2.0683401078      -11.7424676638
 C         0.8652387857       -1.6950312970       -4.9841454210
 C         0.3008482958       -4.0904950265       -4.2519092021
 C        -6.2167818781       -1.1577293395       -4.4278392996
 C        -5.6651279355       -1.7577309387       -1.9554218025
 C       -10.1291553846       -7.7862312402       -0.7219993283
 C       -10.9936946785       -6.8755786415       -3.0409130183
 C       -14.9065414069       -1.6350782158       -0.2496749711
 C       -16.0419460330       -3.5954707383        0.8807381534
 C       -17.1317586364       -6.0713631661       -6.3393367591
 C       -18.2605647637       -3.9269550343       -7.2908049036
 C       -24.1249286239       -4.3183392712       -4.4829327915
 C       -23.5557145302       -2.6658699754       -2.6460973218
 H       -24.5757958980       -5.1724019306       -1.5198008806
 H       -23.1327417224       -5.6051731496       -0.4821805207
 H       -23.6691442304       -6.7081206028       -1.7091043708
 H       -20.6973577245       -3.1283932922       -6.1915292737
 H       -22.2571151126       -3.6269901006       -6.4849830774
 H       -20.8419775617       -5.2484540961       -7.0833296130
 H       -21.4665775124       -5.9768108900       -5.5783671010
 H       -15.4578070014       -4.8704392846       -4.8392803677
 H       -16.6892011244       -5.3271041303       -3.5646723703
 H       -15.4739048537       -2.5444437741       -3.4510357383
 H       -14.4280761327       -3.7812568332       -3.1301440238
 H       -13.8989146196       -5.5930583325        0.8087168135
 H       -13.3938960528       -4.0305429569        1.5912898165
 H       -11.6579212007       -5.8523460635        1.1989351392
 H       -11.1978278371       -4.3704540597        0.1911579235
 H        -9.1980201910       -4.7590300684       -3.2666084111
 H        -8.2505828742       -6.1401800601       -2.9178072987
 H        -6.4791859595       -4.6529246048       -2.0236587415
 H        -7.7122306108       -3.6298134703       -1.2353483203
 H        -3.9499963717       -2.2311174533       -5.4145537112
 H        -4.5521846479       -3.8783902238       -5.5619735828
 H        -2.1157897115       -4.4495489958       -5.3243543847
 H        -2.3077491261       -3.8612131107       -3.6663728881
 H         2.0548596161       -2.5420173933       -7.4472690027
 H         0.4376448415       -1.8694036271       -7.8699834421
 H         0.2503376040       -3.6323318859       -9.5225541164
 H         1.4690250068       -4.5625585575       -8.8759762409
 H         4.1681865048       -3.6582162877      -12.4520238037
 H         4.4903568140       -1.9969780804      -11.7620157462
 H         4.8690011668       -0.8777089309      -13.4954760064
 H         3.7458386913       -1.6052050194      -14.5955320376
 H         8.9159849924       -0.6925554825      -16.8488191977
 H         8.8871802261       -2.2839696009      -16.6659161289
 H         9.3661981806       -1.5171806213      -14.3210300422
 H         7.7836586306       -1.1738151519      -14.1600351666
 H         7.2179106700        3.9945494203      -13.8888643999
 H         6.4518176850        3.3112376013      -12.3720862192
 H         4.8015282183        4.4558030340      -13.9659244375
 H         4.4813138740        2.4948548542      -13.7879518540
 H         3.9777543507        2.4405011965      -19.5848379096
 H         5.7063641090        2.5345061833      -18.9235371094
 H         6.0080707413        4.7725012432      -20.1621368057
 H         4.4304327343        4.7701369255      -20.7120671475
 H         7.9244692951        5.2624675067      -21.1560397530
 H         8.7624570180        5.4515763814      -22.6909103341
 H        10.1505016726        4.7543987702      -20.5137604835
 H        10.6369622390        3.8088957586      -21.8720815631
 H         8.7035685601       -1.0683330811      -22.7524688175
 H         7.5414139282        0.3630720034      -23.0492772024
 H         7.1652354338       -1.0101318704      -22.0440813671
 H        11.2362816756        0.5380841571      -22.2814248453
 H        11.0855576543        2.1722546805      -22.4901377864
 H         9.7590488176        1.2558937480      -22.9988048693
 H        10.2599556482       -0.5083496540      -19.8190236033
 H         9.8946159986        0.7309333296      -18.8102873265
 H        11.5154276022        0.6253249528      -19.7408171009
 H         5.8578550742        1.9289076474      -24.1613168653
 H         6.3513753877        3.3332824915      -25.0791187322
 H         4.6964916187        3.3105001966      -24.5401620489
 H         6.5265684881        5.7300746371      -23.9928472560
 H         5.9547202591        6.0919308700      -22.3968770556
 H         4.7327948792        5.3831633661      -23.4707238704
 H         4.8252724043        0.9628073922      -16.5594967683
 H         3.5706496489        1.1934349691      -17.6702794785
 H         3.1931497040        1.3767595153      -15.9676929552
 H         2.8401452555        4.7507543814      -15.9842733842
 H         2.3235901909        3.2058972456      -15.2306278367
 H         2.0188993824        3.4038332642      -16.9127361692
 H         8.6995877931        1.3764625037      -11.5607455598
 H         9.8714853458        0.3354947895      -12.4447533817
 H         8.0145047458       -0.0237137608      -12.3529007222
 H        10.4432254025        2.5429641605      -13.7340294718
 H         9.1255045093        3.5809122848      -13.0100441622
 H         9.1485558405        3.1225857524      -14.7667949592
 H         5.9325515531       -4.4691293020      -16.6262979592
 H         7.4645430108       -3.7974820654      -15.9042980672
 H         6.8609173551       -3.5770844057      -17.5660294125
 H         3.8170879092       -3.0231115503      -16.7857970298
 H         4.6664649742       -2.4173124836      -18.0781977826
 H         4.0141006664       -1.3006902612      -16.9175406207
 H         0.3451904029       -4.6684017444      -11.9536932960
 H         2.0387197856       -5.0417168756      -11.4014425716
 H         1.6507231005       -4.3744828041      -13.0799521114
 H         0.1601575885       -1.3839858931      -10.9069418487
 H        -0.5976072616       -2.7496019727      -11.5249553335
 H         0.0875451386       -1.5262371722      -12.6497628926
 H         0.8609314425       -1.3515618092       -3.9090898857
 H         0.6734266572       -0.9165471009       -5.6963854870
 H         1.8901699282       -2.0074356447       -5.0900635526
 H        -0.0692973487       -4.9696394682       -4.6668547675
 H        -0.1827643446       -3.8171548301       -3.2943081367
 H         1.3702932436       -4.2580440723       -4.1371357234
 H        -6.3960358505       -1.6197131457       -5.3877146446
 H        -5.3125238924       -0.5110812055       -4.4269600953
 H        -7.1634781975       -0.6066689044       -4.1683739216
 H        -6.0700412034       -0.6867207165       -1.9241700765
 H        -4.6165448793       -1.6583354801       -1.6783479531
 H        -6.1148006001       -2.3753969572       -1.1984131718
 H       -10.8266304918       -8.5486376350       -0.5573980670
 H        -9.7813797823       -7.4508911561        0.2173287978
 H        -9.3663814076       -8.4108785170       -1.2618216312
 H       -11.7473664554       -7.7128386907       -3.0985277662
 H       -10.1482606942       -6.9637062957       -3.7050325786
 H       -11.4872711837       -5.9760731028       -3.3448973857
 H       -15.7098156687       -1.0330500856        0.1706697311
 H       -14.6196565538       -1.3109017715       -1.1697966672
 H       -14.1416057273       -1.6460590547        0.4851084347
 H       -15.4921094465       -3.2850246159        1.7562020687
 H       -16.3215832447       -4.6410566908        0.9537067875
 H       -17.0215056880       -3.1637667796        0.7433708511
 H       -16.3280142484       -6.2461722706       -5.7076122291
 H       -16.7119515811       -5.9849838467       -7.3740817104
 H       -17.7179183189       -6.9958209694       -6.3729926186
 H       -18.9162969907       -3.0257159860       -6.9849551153
 H       -18.6454325129       -4.4480783734       -8.1643645532
 H       -17.3423591962       -3.4331092649       -7.4351472894
 H       -23.7936242790       -5.0777398560       -5.2002814399
 H       -24.5305665997       -3.4646854345       -5.0276125524
 H       -25.0716936904       -4.7313596198       -4.0350221965
 H       -24.3480625839       -3.0480677347       -2.0388467586
 H       -23.8251926083       -1.7971487182       -3.3105807162
 H       -22.7665196995       -2.2092527501       -1.9323505149
 Na      -19.2549807966       -3.9198411247       -2.7332358740
 Na        7.6374890452        1.7818948939      -17.7895706745
