232

 C       -17.1352842329      -14.0620378775       -0.2220932214
 C       -16.4059878419      -14.1006494635       -1.6666042928
 O       -16.4765838590      -13.1224547568       -2.3827021942
 C       -15.4069936707      -15.2557658435       -1.8884720855
 C       -14.8591050897      -15.3437500894       -3.4030511529
 O       -15.6194121903      -15.0771316305       -4.3331242307
 C       -13.4544577848      -15.7828179541       -3.7946683381
 C       -13.2908967028      -15.6051835026       -5.3039349649
 C       -13.5833833741      -14.1558760316       -5.7003741996
 O       -13.6261486852      -13.2716620563       -4.9076405834
 C       -14.0098769422      -13.9272821036       -7.2807152886
 C       -14.9490633519      -12.6613431791       -7.2812004697
 O       -16.1666183323      -12.8805324772       -7.0331278471
 C       -14.3258242845      -11.2892873083       -7.3755623327
 C       -15.3414272629      -10.1457091219       -7.6105893608
 C       -15.8838671702       -9.5626753180       -6.2960604355
 O       -15.9536858745      -10.1391961315       -5.2329099526
 C       -16.1947102476       -8.0020213057       -6.4457153577
 C       -14.8084612012       -7.2829445357       -6.2646091904
 O       -13.7721631607       -7.9931065565       -6.0879257321
 C       -14.6511129901       -5.7752868095       -6.2596087514
 C       -13.3200559686       -5.2386336205       -6.9302074287
 C       -13.1262630604       -3.7348510742       -6.8276848729
 O       -13.5882763553       -3.2200730134       -5.8669770138
 C       -12.2432114698       -2.9431537929       -7.8489336898
 C       -10.6614667959       -3.0728675655       -7.3838702909
 O       -10.1597855048       -4.1566137778       -7.3593462684
 C        -9.8079980879       -1.8068071779       -7.2431792187
 C        -9.7940427144       -0.9388233594       -6.0393737011
 C        -9.7754997617        0.5398711444       -6.4984241544
 O       -10.1457769040        0.8241901045       -7.6082599787
 C        -9.3101562936        1.7979897084       -5.5824565134
 C        -7.7895051899        1.8856060270       -6.0335105516
 O        -6.8953543646        1.4763459121       -5.3479379347
 C        -7.6686620589        2.5494747143       -7.3368495964
 C        -6.4412019385        2.1659076226       -8.2028627197
 C        -5.8742328536        3.4077448239       -8.9892751911
 O        -5.7327427765        4.4176711502       -8.4038414199
 C        -5.4780298709        3.2924551853      -10.5330188015
 C        -4.2657782971        2.3152792761      -10.7907251843
 O        -4.2796466175        1.2799192848      -11.4285635814
 C        -2.9473777423        2.8248687025      -10.0085572662
 C        -1.9537633608        1.5964505867       -9.7716704616
 C        -0.4633855810        2.0235964461       -9.9810239487
 O        -0.1336570985        2.6901888751      -10.8795338468
 C         0.5211223981        1.5446801725       -8.8410689646
 C         2.0284366918        2.0250406483       -9.1659410349
 O         2.7822446403        1.2858953434       -9.7020566258
 C         2.5457838109        3.4021499804       -8.7292222627
 C         3.5522254686        3.9234626136       -9.7803656588
 C         2.9505999449        5.1572286655      -10.4311171614
 O         1.9317056483        5.6621624112      -10.0879620718
 C         3.8483623401        5.9821929093      -11.6218965793
 C         4.2731624928        5.0840293404      -12.7208918294
 O         5.4162607755        4.5654059278      -12.7825668476
 C         3.1929679033        4.9040040921      -13.8706341418
 C         3.5200850098        5.6676983638      -15.1642681714
 C         3.6243215699        4.8708535407      -16.5109483179
 O         3.8329923744        3.6682375980      -16.4515786187
 C         3.5166413880        5.6201590445      -17.8179660850
 C         5.0389192080        5.6713921099      -18.4547854169
 O         5.2631162809        4.8282064762      -19.3504349275
 C         5.9171194966        6.6575116413      -17.8448820685
 C         7.3691772460        6.2036591355      -17.5953520972
 C         7.4294812847        4.9024496495      -16.7707396818
 O         6.6525379926        4.8541490618      -15.8230941772
 C         8.4417768779        3.7331283339      -16.9480149373
 C         9.7563960728        4.2164768427      -16.1510259385
 O         9.6265653894        4.9812126400      -15.2217130171
 C        11.1311610786        3.6736684360      -16.6134086160
 C        11.9791742691        3.2243923084      -15.3399052415
 C        11.7026083782        1.8194946870      -14.9929920723
 O        11.2232501767        1.0166015622      -15.8529013061
 C        12.0743056598        1.3296248291      -13.5455597519
 C        11.0717896514        0.2201843175      -13.1009093802
 O        11.4261714573       -0.8784291261      -12.8077468258
 C         9.5955912494        0.6910311352      -13.0637625126
 C         8.5682236914       -0.4144768257      -12.9399422272
 C         7.1932548755        0.1908501231      -13.3105476356
 O         7.0780292939        1.4126983035      -13.4896517154
 C         5.9313957881       -0.7433583528      -13.3230100482
 C         5.0990408525       -0.1750420515      -14.5043139881
 O         4.6506831038        0.9507761938      -14.5906911161
 C         4.9031249540       -1.0813868574      -15.8049602837
 C         6.3508215418       -2.2192512758      -13.5381570155
 C         5.3535516436       -0.3775806411      -11.9605729937
 C        13.4796421995        0.6893171961      -13.6336825432
 C        12.0928284879        2.3851582102      -12.3955435531
 C         7.9339412437        2.4749232959      -16.2458544527
 C         8.6249588179        3.5092405405      -18.4837266082
 C         2.7759043431        4.7523531782      -18.8146399885
 C         2.8591113712        6.9896742712      -17.7195459853
 C         2.9474066192        7.2660412087      -12.1445747004
 C         5.0661991932        6.5308930826      -10.8122102002
 C         0.2559514179        2.0518234708       -7.4690693879
 C         0.4521786859       -0.0294540577       -8.8840748458
 C        -6.7337680547        2.7996193785      -11.2205696798
 C        -5.0926046193        4.8172439633      -11.0455467044
 C       -10.3013066159        2.9569962044       -5.7498611385
 C        -9.3557294192        1.3097270065       -4.1529841728
 C       -12.1471517807       -3.5177725356       -9.2893537442
 C       -12.6892846428       -1.5076006078       -7.9947261796
 C       -16.6425017491       -7.4832908800       -7.9914894698
 C       -17.1647164040       -7.4904146146       -5.3615085671
 C       -12.7390454732      -13.7722987333       -8.1341485808
 C       -14.7937406214      -15.1905565576       -7.8764166846
 C       -14.2756736367      -15.1703191276       -0.8862630405
 C       -16.1535785606      -16.6770391908       -1.7780014386
 H       -16.7023152703      -13.3192946542        0.3931112492
 H       -17.1728598957      -15.0022842020        0.3441447407
 H       -18.1912678863      -13.8356960775       -0.5302101132
 H       -13.1699580175      -16.7551521228       -3.5187588632
 H       -12.7360160223      -15.1076385000       -3.3133626783
 H       -13.9626102779      -16.1826204453       -5.9068593757
 H       -12.2452793609      -15.8203400596       -5.6147594149
 H       -13.5756146130      -11.2067527910       -8.1467505650
 H       -13.6762323262      -11.2603025027       -6.5064945264
 H       -16.2065652846      -10.4199599070       -8.2748755579
 H       -14.7760493963       -9.2657941637       -8.1381308489
 H       -14.7192396706       -5.4837521260       -5.1432942880
 H       -15.5208342816       -5.3167842754       -6.7194112926
 H       -13.2887310395       -5.6544344677       -7.9608650225
 H       -12.3818721616       -5.6877105625       -6.5159142896
 H       -10.0399197194       -1.2005792108       -8.1738695617
 H        -8.8077202187       -2.0407050142       -7.5197822624
 H        -8.9359569098       -1.2118478701       -5.4295783070
 H       -10.7452222359       -1.2099229006       -5.4810380978
 H        -7.7257282553        3.6366758270       -7.1631170871
 H        -8.5324962289        2.3432805047       -7.9366045840
 H        -6.5508557300        1.3196109214       -8.8741819565
 H        -5.6944580199        1.7941847820       -7.4145409577
 H        -3.1668530700        3.2869161564       -9.0688435147
 H        -2.4977119285        3.7676590737      -10.5883952128
 H        -2.3033858654        0.9337474660      -10.6151953183
 H        -2.2204151376        1.1008328677       -8.8422663288
 H         3.1235740398        3.2499660354       -7.8205969963
 H         1.7545084076        4.0479955622       -8.4998693330
 H         3.7327085364        3.1756931670      -10.5967129550
 H         4.5208879946        4.1743170850       -9.4755620076
 H         2.1921749899        5.1820387724      -13.4935158772
 H         3.1377726854        3.8680342807      -14.1444583994
 H         4.3585314325        6.3386186282      -14.9148231358
 H         2.7056575740        6.3905349910      -15.2296372139
 H         5.5755379723        7.0753830053      -16.9106438463
 H         6.0665632257        7.5189008270      -18.4331099559
 H         7.9990900228        6.9323333219      -16.9238049652
 H         7.8470422450        6.1030470210      -18.4961314321
 H        11.6180879393        4.5918786722      -16.9439525899
 H        10.9970177860        2.7912063333      -17.3147944085
 H        11.8114907891        4.0208659050      -14.6016494462
 H        13.0238908965        3.2718361260      -15.8166582527
 H         9.4053327252        1.1049271872      -14.0584555725
 H         9.4737982666        1.6028212860      -12.4269364095
 H         8.4409532379       -0.9596325484      -11.9411035839
 H         8.9429157414       -1.1658061415      -13.6411051981
 H         5.9490880715       -1.2805551062      -16.1953860254
 H         4.4252417014       -0.4357886952      -16.6068791396
 H         4.3959097582       -1.9604544195      -15.5556721931
 H         5.4936814464       -2.8306547691      -13.7460632906
 H         6.9667418415       -2.4667599266      -12.6663562347
 H         7.0759518536       -2.3230122858      -14.3751472551
 H         5.6592028069        0.5809043756      -11.4338176765
 H         5.6953861291       -1.2111707587      -11.2331189591
 H         4.2538746529       -0.3189133919      -11.8495564851
 H        14.3278743889        1.2829923621      -13.8321382928
 H        13.4437444807       -0.1754823476      -14.2399571181
 H        13.7705850253        0.2836977761      -12.6573938355
 H        12.9166449164        3.0948001393      -12.4276978936
 H        12.2341737951        1.9024586216      -11.4655643265
 H        11.1597854302        2.9662442595      -12.4956345806
 H         8.2308583379        2.6344400828      -15.1865629442
 H         8.6213063610        1.8043360398      -16.7417859591
 H         6.9548135705        2.1352397997      -16.6295393023
 H         8.7729405827        4.3774692614      -19.0381085048
 H         7.6742200899        3.0402572914      -18.7236688714
 H         9.5019164513        2.8047102336      -18.7911721735
 H         1.7285736537        4.8004223323      -18.5484297524
 H         3.1330795280        3.7552933845      -18.9330779477
 H         2.9776941196        5.1339164875      -19.8363507763
 H         2.6120934147        7.3450776565      -18.7125444787
 H         3.4878869939        7.7755860582      -17.3331649745
 H         1.9884231780        6.9414289636      -17.1415377854
 H         2.4885024846        7.6694833457      -11.1962967013
 H         2.1595788153        6.8232712625      -12.6684288748
 H         3.5270144522        8.0342327107      -12.7193451429
 H         5.7427532862        7.2107544957      -11.4120990131
 H         5.5973338558        5.6139832923      -10.5736569358
 H         4.6814777834        7.0497867927       -9.8994271708
 H        -0.1820683096        3.0917082516       -7.3216210521
 H         1.1373433185        2.0021578690       -6.7851747545
 H        -0.5131693045        1.4011931137       -7.0886303465
 H        -0.5847759039       -0.2965299775       -9.2268273143
 H         0.4064700947       -0.4431457677       -7.9303194297
 H         1.0355542394       -0.5231785865       -9.6223259254
 H        -7.0060217514        1.8531468894      -10.6879041347
 H        -6.6279773717        2.5124488390      -12.2142900166
 H        -7.5979747487        3.4104141233      -11.1353993056
 H        -5.8565413807        5.4609345694      -10.5273816145
 H        -5.2864154815        4.8573888780      -12.1069644015
 H        -4.0938772446        5.1860805968      -10.8265322697
 H       -11.1938907776        2.7305378811       -5.2137278717
 H       -10.5370033662        2.9821781694       -6.8207713109
 H        -9.8409757003        3.9843913900       -5.5418175134
 H        -8.8130482509        1.8814094167       -3.3465060556
 H        -8.7499893457        0.3299445094       -4.1657621769
 H       -10.3579579034        1.1644193691       -3.7393564215
 H       -11.7440378586       -2.8547953284      -10.0272977076
 H       -13.1474564065       -3.7419856854       -9.5905292822
 H       -11.5587110777       -4.3877945240       -9.2675786208
 H       -13.6535819951       -1.4747904737       -8.4511490526
 H       -12.0550037496       -1.0330561285       -8.6629960871
 H       -12.9160217014       -0.8569921140       -7.0878667078
 H       -15.6688307200       -7.4042767889       -8.5518893128
 H       -17.0491215470       -6.5345159833       -7.8190062090
 H       -17.2638518206       -8.2484964202       -8.4428927824
 H       -16.6188542391       -7.4039413588       -4.3951780999
 H       -18.0280567475       -8.1356123423       -5.2597885477
 H       -17.6774568426       -6.5746835498       -5.4925792493
 H       -12.3328714700      -12.7636321909       -7.9944441904
 H       -12.9665526825      -14.0451725935       -9.1851724168
 H       -12.0075038536      -14.5039463223       -7.8573367626
 H       -15.6338190005      -15.2979231583       -7.1960017868
 H       -14.1327925539      -16.0907635674       -7.7539183800
 H       -15.0753470189      -15.1127435051       -8.8678969693
 H       -13.9709613405      -14.1234299355       -0.8694499469
 H       -13.5374685096      -15.9324666572       -1.0742838167
 H       -14.6099212782      -15.3425979882        0.2220137354
 H       -16.8658312597      -16.8179636552       -2.5534052159
 H       -16.6136682635      -16.7809837227       -0.8208889444
 H       -15.3973775133      -17.4742181807       -1.8496795591
 Na      -15.8719244917      -12.4682797058       -4.7244452558
 Na        5.5815262981        3.0599354513      -14.6063043726
