232

 C       -23.6772113713       -5.5775609695       -1.5208543008
 C       -22.5450784620       -4.9950805000       -2.4650645998
 O       -21.4279507320       -5.3905288991       -2.3276142627
 C       -23.0525246973       -3.8413809227       -3.4924625597
 C       -21.6989266616       -3.3728242030       -4.2300653137
 O       -20.8819553402       -2.8220137077       -3.5560456383
 C       -21.4977228192       -3.6955009748       -5.7536275048
 C       -20.7864626222       -5.1239792682       -5.9644195331
 C       -19.3816799302       -5.3477414948       -5.3215898937
 O       -19.3017242893       -5.9989760596       -4.2880734643
 C       -18.0279253307       -4.7757223606       -6.0651968668
 C       -17.3457253149       -3.9436336708       -4.8679805751
 O       -17.8591995575       -2.8189186960       -4.7050039571
 C       -16.2723077423       -4.5277193374       -3.9536460050
 C       -15.5634481078       -3.5539395527       -2.9949808669
 C       -16.2156270037       -3.5464323050       -1.6202649847
 O       -17.3266137768       -3.9952591310       -1.3732996424
 C       -15.2940053794       -3.0957960423       -0.4249029012
 C       -13.8503244722       -3.7849848189       -0.5361967926
 O       -13.1089717027       -3.5366233571       -1.4660251087
 C       -13.3738656021       -4.5857665293        0.6871917817
 C       -11.9528551616       -5.2692159697        0.4609542722
 C       -11.9133162204       -6.0231043036       -0.8361594770
 O       -12.9615499328       -6.3944484091       -1.2879480059
 C       -10.5928048593       -6.4894193219       -1.5051282684
 C        -9.5652381908       -5.3762651640       -1.3099166261
 O        -9.3835244525       -4.9261222910       -0.1886105675
 C        -8.5809015212       -5.1363497958       -2.5194561680
 C        -7.4681263915       -4.0763272605       -2.2196051115
 C        -7.2351799003       -3.1889142553       -3.4029779255
 O        -7.9620047189       -3.1552696885       -4.3885859132
 C        -5.9358025224       -2.3131831142       -3.3440495713
 C        -4.8524224905       -3.3798837377       -3.6248166212
 O        -4.5646575090       -4.1968326894       -2.7868251044
 C        -3.9906077584       -3.1147516778       -4.9122287104
 C        -2.5064739188       -3.4813351789       -4.7812347666
 C        -1.4773486010       -2.4202146434       -5.1844361825
 O        -1.7834619441       -1.2657252412       -5.4562796778
 C        -0.0382861612       -2.9223662357       -5.3633548825
 C         0.0051698899       -3.4617029489       -6.8333228978
 O        -0.6416186522       -4.4146379130       -7.2524438104
 C         1.0372143938       -2.7824352626       -7.7149789555
 C         1.2308510315       -3.4846321237       -9.0341250505
 C         2.0229677581       -2.7803258965      -10.1054649379
 O         2.8856730703       -1.9782554353       -9.7706555658
 C         1.5455977268       -2.8255642004      -11.5428439528
 C         2.5842397416       -2.0618999452      -12.4329846173
 O         2.2339801779       -1.1291838030      -13.1348882429
 C         4.0835922510       -2.5310360678      -12.5711704621
 C         4.5273983385       -1.8765831095      -13.9268988646
 C         5.6688735197       -2.5541185907      -14.6406487461
 O         6.4361599400       -3.2937928526      -14.0579041724
 C         6.0176314608       -2.4316960455      -16.2873641159
 C         6.8874128150       -1.1863270995      -16.6836413703
 O         6.3852561498       -0.1631601440      -17.1671768025
 C         8.3037757083       -1.3926623386      -16.3428704333
 C         8.6602468547       -0.8436154696      -14.9458975127
 C         8.7500374494        0.6043318033      -14.9554748902
 O         9.1047582586        1.1468413661      -15.9632547114
 C         8.5589273920        1.4096565495      -13.5900619072
 C         6.9642913075        1.7157085571      -13.6163913104
 O         6.2578427830        0.7454004565      -13.7767519737
 C         6.4620907940        3.0795509516      -13.4165675694
 C         5.1895453285        3.4427461035      -14.1448591848
 C         5.2948410051        3.3047765508      -15.6668462458
 O         6.3778111081        3.2138959741      -16.2101376614
 C         4.1259277911        3.0875667851      -16.5693679268
 C         4.4464545655        3.8790084075      -18.0099191487
 O         4.1074018389        5.0425340243      -18.1064873047
 C         5.0420653351        3.1126050957      -19.1993637568
 C         5.1968144025        4.0420752562      -20.4593498742
 C         5.1310691274        3.1924609935      -21.7915778609
 O         4.6785057885        2.0661277633      -21.7987568997
 C         6.0418920296        3.8604131182      -22.9215412293
 C         7.5786561564        3.6510874982      -22.7543720113
 O         8.0717352647        2.5765972805      -23.1079208339
 C         8.5490053202        4.6893011924      -22.1053056856
 C         9.6129168454        4.0847087796      -21.2428281192
 C         9.3578506754        2.7470402886      -20.3768872886
 O         8.8828344427        2.8724545263      -19.2660181773
 C         9.7078446008        1.3029031107      -20.8814366894
 C         8.3304722844        0.4310407938      -21.0278583769
 O         7.6706097527        0.3451120435      -20.0798375483
 C         8.1326943069       -0.3946048136      -22.2995519460
 C        10.6844677444        1.2681834906      -22.1414886839
 C        10.4835750430        0.5920573812      -19.6071279290
 C         5.7507631578        3.0102340159      -24.2527258457
 C         5.6203471269        5.2942610665      -23.0316527245
 C         4.1580251868        1.5007160568      -16.5382646877
 C         2.7638104964        3.7211256107      -16.0940820423
 C         8.9440270384        0.6723896673      -12.2534596738
 C         9.4927380740        2.6679228596      -13.9079218866
 C         6.7360478820       -3.8240212889      -16.5993715203
 C         4.7816761974       -2.2105170667      -17.0369655691
 C         1.4466315879       -4.2773230163      -12.0278572637
 C         0.1663125672       -2.0170226167      -11.6286968792
 C         0.8985887759       -1.6349918642       -5.1715984205
 C         0.2784678144       -3.9733796224       -4.3309221718
 C        -6.0667986922       -1.1554473389       -4.3867263101
 C        -5.5933798132       -1.5541019494       -2.0290752462
 C       -10.1543346176       -7.8047128654       -0.7301154368
 C       -10.8599741840       -6.8656546624       -2.9201140935
 C       -14.9030723059       -1.5968705948       -0.3696635847
 C       -16.0446440182       -3.5424787542        0.8175182409
 C       -17.3572552712       -6.0578906802       -6.4232026656
 C       -18.2927978162       -3.9438017710       -7.3420757593
 C       -24.0968500491       -4.3432793600       -4.4643000751
 C       -23.7171391569       -2.7035997136       -2.7328149324
 H       -24.6491507901       -5.1560877604       -1.6760484768
 H       -23.4130772608       -5.5768372548       -0.3844723666
 H       -23.7746885869       -6.6585046676       -1.8059534792
 H       -20.9386514368       -3.0357789960       -6.4183428738
 H       -22.4481701567       -3.6753049132       -6.2551244143
 H       -20.8180133173       -5.3039829963       -7.0602511453
 H       -21.5419219553       -5.7971194461       -5.5472153880
 H       -15.4502965845       -4.8432296681       -4.7122044631
 H       -16.6761281529       -5.3885451837       -3.4264078626
 H       -15.3768269354       -2.5340065766       -3.5000068934
 H       -14.5257899265       -3.8668970481       -2.9314935497
 H       -14.1284567576       -5.3667354151        0.7764688568
 H       -13.3482588245       -3.9049415232        1.5293452175
 H       -11.7443383824       -5.9214013223        1.2601219072
 H       -11.2151633663       -4.4625073925        0.2424943625
 H        -9.0716384463       -4.8486352436       -3.4611851108
 H        -8.1714773949       -6.1712152501       -2.6902942045
 H        -6.5751698236       -4.5750251799       -1.9864073975
 H        -7.8065556437       -3.4439816961       -1.4415093545
 H        -3.9703234759       -2.0712293920       -5.1605774069
 H        -4.4914344022       -3.6463537750       -5.6874358946
 H        -2.1371236459       -4.3609281917       -5.2561795190
 H        -2.2427707862       -3.6116007553       -3.6594558028
 H         1.9746721360       -2.8375391138       -7.1565430680
 H         0.6205151830       -1.7516934650       -7.6822907290
 H         0.2428491299       -3.8533346756       -9.4586615304
 H         1.7330136492       -4.3944235323       -8.7314343707
 H         4.0471366357       -3.5846400420      -12.7718211868
 H         4.7037074397       -2.2468135314      -11.6468700041
 H         4.7566823306       -0.7802056358      -13.8799665523
 H         3.6796171560       -2.0561917850      -14.6307245410
 H         8.9956760111       -0.9603957299      -17.1288446518
 H         8.6378587885       -2.3964772383      -16.5264122368
 H         9.4204346824       -1.3879851196      -14.4766069579
 H         7.8344791665       -1.0501529011      -14.2563884396
 H         7.3592679981        3.7149716583      -13.7273843752
 H         6.3106463849        3.2199996886      -12.3323813488
 H         4.6991786206        4.4020352063      -13.7809235738
 H         4.5794448422        2.4921681436      -13.9411791844
 H         4.4396371981        2.2200389458      -19.5564521766
 H         5.9862023139        2.9041180631      -18.8486280308
 H         6.0509545929        4.7170213802      -20.6000176893
 H         4.3843397345        4.8257768510      -20.5448049180
 H         8.0592621692        5.5246691350      -21.6093032228
 H         9.0838503664        5.1492285769      -22.9875040349
 H         9.9684420510        4.9031630310      -20.4986601915
 H        10.5336080692        3.8327739932      -21.8664359300
 H         9.0671373777       -0.8389454645      -22.5399570465
 H         7.7155410185        0.2629322733      -23.1565870197
 H         7.4260075403       -1.2811050324      -22.2300524789
 H        11.4054248312        0.4449402865      -21.9523332562
 H        11.3694454845        2.0849212767      -22.2938298121
 H        10.2270867881        1.1639255478      -23.0862897692
 H        10.4820082317       -0.5127195625      -19.6866717317
 H         9.9370583392        0.6867577130      -18.6542204959
 H        11.5653994456        0.8170514256      -19.5597040603
 H         5.8903069049        1.9692337589      -24.1340805154
 H         6.4757844660        3.3556709182      -25.0702061503
 H         4.7586215193        3.1993300935      -24.6771759537
 H         6.2327434757        5.7975247668      -23.8486282852
 H         5.8821374636        5.9328006427      -22.1859834967
 H         4.5138877662        5.3033296411      -23.0810242256
 H         5.1352373376        1.1859307542      -16.5372761409
 H         3.7580867752        1.0247086483      -17.4712491273
 H         3.6757607343        1.1031429913      -15.6611596131
 H         2.7783442550        4.7875465424      -16.3503920606
 H         2.5134220645        3.6527465269      -15.0345564307
 H         2.0516264790        3.1463604662      -16.6052603759
 H         8.7677734969        1.3411532973      -11.4058432413
 H        10.0588736644        0.4223361837      -12.3071462051
 H         8.2235472496       -0.0974023641      -12.1269362271
 H        10.3970632724        2.1962010265      -14.1446678682
 H         9.6563800063        3.3237044995      -13.0562924258
 H         9.1203565016        3.2229470458      -14.7772737029
 H         5.8714599804       -4.4967802016      -16.7641365779
 H         7.4475472335       -4.2068179626      -15.8249000440
 H         7.1717776230       -3.9854082350      -17.6428334721
 H         4.0440845871       -3.0158414503      -16.9168838498
 H         4.9948934512       -2.1529763512      -18.1155446469
 H         4.4089177228       -1.2919733744      -16.7433094508
 H         0.5543450956       -4.7834314035      -11.5840096678
 H         2.3596463920       -4.7915779741      -11.7619113029
 H         1.2570722701       -4.2017975162      -13.1500341469
 H         0.1867259771       -1.0229188105      -11.1579318227
 H        -0.6262319826       -2.5617300740      -11.1355497232
 H        -0.0391741692       -1.9383570854      -12.6931360971
 H         1.0953961697       -1.4608468293       -4.1062196283
 H         0.4154407387       -0.7611800815       -5.5822921318
 H         1.8754573871       -1.7229899344       -5.5334887013
 H        -0.1901102853       -4.8968914058       -4.6328026462
 H        -0.0662398180       -3.6704002260       -3.3507129499
 H         1.3444669878       -4.1512482869       -4.3282628589
 H        -6.3447144322       -1.5852976677       -5.3350003231
 H        -5.1808575471       -0.5777140669       -4.4527416473
 H        -6.9599016359       -0.5713526749       -4.0287711085
 H        -5.9001699044       -0.5063542127       -2.1370311660
 H        -4.4622796307       -1.4406566176       -1.9724635818
 H        -5.8110238898       -2.0508801906       -1.0692485401
 H       -10.8930694265       -8.5332236085       -0.5552872555
 H        -9.6457315652       -7.5479054198        0.1936469564
 H        -9.5022341382       -8.3932601501       -1.3734042813
 H       -11.5351892382       -7.7576943680       -2.8755164952
 H        -9.9181997192       -7.1062105617       -3.4259535404
 H       -11.3252984644       -6.0698702180       -3.4545083398
 H       -15.6417945261       -1.0345806366        0.1175341685
 H       -14.7370150607       -1.3214398898       -1.4225089583
 H       -13.9917332988       -1.5208425184        0.2454875781
 H       -15.4015166798       -3.5409337294        1.6289677590
 H       -16.3478115919       -4.5126694904        0.6450311264
 H       -16.9323859394       -3.0160800089        0.9873119106
 H       -16.7816848571       -6.5076492188       -5.5432636240
 H       -16.6605868952       -5.8699420867       -7.1668139487
 H       -17.9992681198       -6.8135401411       -6.8717170248
 H       -18.8389581074       -2.9642279038       -7.1464475870
 H       -18.7024421454       -4.5219104634       -8.1361281031
 H       -17.3346618844       -3.5913449573       -7.5970218416
 H       -23.6465012466       -5.1827359571       -5.1534994246
 H       -24.6271912354       -3.6168237081       -5.0600890231
 H       -24.9084033639       -4.8278853279       -3.9566216407
 H       -24.2914446751       -3.1239424817       -1.9055213570
 H       -24.2473426769       -2.0343179066       -3.4160443386
 H       -22.9549909440       -2.0330227617       -2.3166891071
 Na      -19.2345339575       -3.8575713291       -2.6760016352
 Na        7.5347111542        1.7487546847      -17.7484194102
