232

 C       -23.7494151433       -5.5486398347       -1.6403936004
 C       -22.6229153013       -4.9573748288       -2.5190671364
 O       -21.4929452062       -5.3507639692       -2.3617444339
 C       -23.0774155134       -3.8454976876       -3.5020731992
 C       -21.7692366615       -3.3925378533       -4.1678027300
 O       -20.9008271801       -2.7938426375       -3.5181692111
 C       -21.4356634400       -3.6223332326       -5.6242373988
 C       -20.8114275249       -4.9990806261       -5.9128525763
 C       -19.4865797807       -5.2536705868       -5.2486818505
 O       -19.2607304106       -5.8454564929       -4.2366093031
 C       -18.1146125498       -4.8521429258       -6.0170609516
 C       -17.3201727839       -3.9657839627       -4.9709993807
 O       -17.6279288054       -2.7559669794       -4.8304022745
 C       -16.3094627368       -4.5692543976       -4.0173629845
 C       -15.7138467629       -3.5522130430       -3.0260792358
 C       -16.2127860052       -3.6083884297       -1.6011249772
 O       -17.3535737103       -4.0124724821       -1.2776474953
 C       -15.2888717292       -3.1277079264       -0.3858390960
 C       -13.8335765495       -3.7628594912       -0.4861866361
 O       -13.1721923010       -3.5513584531       -1.5156183547
 C       -13.4210392012       -4.5786254023        0.6980152833
 C       -12.0418887539       -5.1851209390        0.5866527373
 C       -12.0096274278       -6.1269700014       -0.7319608180
 O       -13.0217120393       -6.6077567137       -1.2562846894
 C       -10.6097870649       -6.4416515527       -1.4556915165
 C        -9.4058393267       -5.4565000743       -1.2493064901
 O        -9.1520621486       -4.9079467765       -0.1728907820
 C        -8.5793174340       -5.0691914710       -2.4721826452
 C        -7.6055214128       -4.0032370764       -2.2036746310
 C        -7.2477768488       -3.0798354782       -3.3888657323
 O        -7.8927152451       -3.0784356458       -4.4336874793
 C        -5.8825688811       -2.1870422378       -3.3859465935
 C        -4.7398473299       -3.2361775500       -3.6103652210
 O        -4.6365532734       -4.2276066644       -2.8818627183
 C        -3.9126087165       -3.0201593673       -4.8478217683
 C        -2.5139044454       -3.4944346191       -4.7518826902
 C        -1.5270636968       -2.3274444222       -5.1950477914
 O        -1.8361825901       -1.1859920967       -5.3587660838
 C        -0.0858186433       -2.8960702936       -5.4421857147
 C        -0.0304834536       -3.4503351577       -6.9118771210
 O        -0.7105319370       -4.3433185523       -7.3299151454
 C         1.1441897577       -2.8461853466       -7.7968593593
 C         1.2935936533       -3.6457558739       -9.0466366359
 C         1.9843371366       -2.6224103760      -10.0207771031
 O         2.9031262713       -1.9320348220       -9.6726195683
 C         1.5742270682       -2.7743984279      -11.5721120108
 C         2.6169600713       -2.0346757885      -12.5235761920
 O         2.1574965632       -1.0645928379      -13.1346282649
 C         4.0712644201       -2.4997863699      -12.8818350071
 C         4.5805077320       -1.9757485358      -14.2098289757
 C         5.7992500575       -2.6446097012      -14.7354822762
 O         6.5019828343       -3.4489746717      -14.0766527900
 C         6.0006486727       -2.5167666949      -16.3341246875
 C         7.0443041650       -1.3448380861      -16.6602599120
 O         6.4695833629       -0.3353923003      -17.0343171879
 C         8.5224741129       -1.3610827415      -16.4726382226
 C         8.6747183875       -0.9355034163      -15.0107011808
 C         8.8032759213        0.5766102338      -14.9964137970
 O         8.9563647094        1.3005470015      -15.9691017772
 C         8.5979301666        1.3859124868      -13.6720210271
 C         6.9725357540        1.7175481836      -13.5154884585
 O         6.2075953979        0.7886300465      -13.6393602583
 C         6.4156568144        3.1397150684      -13.2686800054
 C         5.1422286328        3.4693374575      -14.1046333786
 C         5.3507184473        3.3354829697      -15.6219372686
 O         6.4628228152        3.3096079783      -16.1519019897
 C         4.0902154976        3.1263315789      -16.6232902284
 C         4.4554907067        3.8227974792      -17.9386855774
 O         4.2026644054        4.9872034455      -18.0740715782
 C         5.2470779988        3.0876390758      -19.1346877714
 C         5.1037469841        3.9000948687      -20.4074860964
 C         5.2459980050        3.0487289731      -21.7176280769
 O         4.7726074898        1.9369814296      -21.8285995460
 C         5.9240465867        3.8380606115      -22.9000922607
 C         7.5211316797        3.5765867815      -22.7367606979
 O         7.9671412247        2.5221957057      -23.1794852136
 C         8.4636137477        4.5914395812      -22.1393032321
 C         9.5955728544        3.9903795469      -21.2351635571
 C         9.2618471564        2.7038135488      -20.4409623153
 O         8.7305448885        2.8193745872      -19.3437578854
 C         9.7711825477        1.2975398146      -20.8465714066
 C         8.5171469806        0.4391779359      -20.9831260562
 O         7.6424795669        0.5185878488      -20.0901727333
 C         8.3010965660       -0.3249471487      -22.2122168922
 C        10.7528420865        1.2501031867      -22.0036320330
 C        10.4970828461        0.7388151956      -19.6215002497
 C         5.5706867496        3.0882206260      -24.2897779411
 C         5.4268669018        5.2638848304      -22.9989912118
 C         4.0073564892        1.6090286051      -16.5430035523
 C         2.7625059091        3.6669937320      -15.9766343171
 C         9.0088677688        0.7142531663      -12.3414931212
 C         9.5234366442        2.6961140551      -13.7583990373
 C         6.6815809761       -3.8641647839      -16.7408780523
 C         4.7202601396       -2.3036981501      -17.1261058652
 C         1.4325725926       -4.2043682099      -12.0879887173
 C         0.2044996255       -2.0812686133      -11.5798931123
 C         0.8786223849       -1.6451417068       -5.2403745589
 C         0.3809095305       -3.9383006804       -4.3976807467
 C        -5.9866695959       -1.1402123805       -4.5049712703
 C        -5.6044436271       -1.5064863506       -1.9873400056
 C       -10.1180593463       -7.7651877231       -0.6723035605
 C       -10.8134606634       -6.8960806263       -2.9567575296
 C       -15.0398181348       -1.5355161911       -0.5597122124
 C       -16.0592356822       -3.4421354783        0.9487024693
 C       -17.4177549824       -6.1823986486       -6.5198948441
 C       -18.3670444090       -3.9549133019       -7.2033091757
 C       -24.0559833658       -4.5759601960       -4.4724490962
 C       -23.7120560750       -2.6563638866       -2.7662827047
 H       -24.7064775165       -5.0924727638       -1.9266626520
 H       -23.5868723938       -5.3905280057       -0.5835601386
 H       -23.8779431633       -6.6480803451       -1.8006975391
 H       -20.7193345640       -2.9688900475       -6.0100777316
 H       -22.3184290151       -3.3968882405       -6.1947817346
 H       -20.6998981792       -5.1487332260       -6.9858487497
 H       -21.5977139629       -5.6660588862       -5.6218784522
 H       -15.5219334632       -5.0360661133       -4.5681049658
 H       -16.9253439491       -5.3574860013       -3.4919359501
 H       -15.9465435188       -2.5153521631       -3.4997363284
 H       -14.6455891948       -3.5177463150       -3.0866919267
 H       -14.2392078598       -5.3400503864        0.8031640986
 H       -13.3993282031       -3.8525747956        1.5223354481
 H       -11.9536136068       -5.8796461191        1.4616928881
 H       -11.3127521085       -4.4121444986        0.4835349658
 H        -9.3105505065       -4.6662561148       -3.2151377874
 H        -8.1132412057       -5.9767030891       -2.9760428902
 H        -6.7147144701       -4.5304072811       -1.8950538483
 H        -8.0170744352       -3.3566213679       -1.3801238558
 H        -3.8525191516       -1.9608359161       -5.2241021968
 H        -4.4105163649       -3.6607985196       -5.6305245556
 H        -2.2921493689       -4.3499805008       -5.3707920142
 H        -2.2232436911       -3.7326744084       -3.7384449376
 H         2.0618546135       -2.8202546954       -7.1858504209
 H         0.8279176297       -1.8217690806       -8.0375045088
 H         0.2012744772       -4.0179277297       -9.3600417315
 H         1.9246430805       -4.5222916524       -8.9276888442
 H         4.1177222748       -3.5642987034      -12.8362644777
 H         4.6696468772       -1.9993584942      -12.0676344166
 H         4.9456723149       -0.9217328630      -14.0570775503
 H         3.7864124376       -2.0013362187      -15.0426249553
 H         9.1166369549       -0.8159634955      -17.1424304431
 H         8.9566476400       -2.3438985496      -16.6566202709
 H         9.6394377418       -1.3868725933      -14.6585774332
 H         8.0028840652       -1.4695171116      -14.2809632671
 H         7.1715447457        3.8058595512      -13.6191129362
 H         6.2775291503        3.3252828675      -12.2015368258
 H         4.8936898699        4.4679989986      -13.9215650271
 H         4.3296793369        2.8065116594      -13.8388016496
 H         4.7361297434        2.1425904279      -19.4466663276
 H         6.3397219995        3.0302293177      -18.8853218178
 H         5.8529776238        4.6921028783      -20.6182172775
 H         4.2367511455        4.5479842893      -20.4492130160
 H         7.9454306806        5.3804352860      -21.6050901635
 H         8.9756713303        5.0914328653      -22.9919044889
 H         9.7804177341        4.7953724081      -20.4294733992
 H        10.5240824575        3.8240709861      -21.7813315776
 H         9.2688329943       -0.8421968877      -22.4343271991
 H         7.9447083743        0.3352051870      -22.9492564641
 H         7.5525389418       -1.1456765363      -22.1743959996
 H        11.1850836783        0.1821242515      -22.0039526252
 H        11.6310556335        1.7611222344      -21.7425219665
 H        10.3926696346        1.5651504205      -22.9555800508
 H        10.8533505798       -0.3189495707      -19.7808283967
 H         9.8671601097        0.6505307326      -18.7629828302
 H        11.4454624552        1.2622665900      -19.4742115840
 H         5.7724778299        2.0025427946      -24.2100907106
 H         6.2615768462        3.4482378251      -25.0690854740
 H         4.6039380038        3.2256922130      -24.6468387656
 H         5.9373998757        5.8073021865      -23.7902267314
 H         5.9323637487        5.7811057670      -22.1694595883
 H         4.3803422853        5.3731221098      -22.8601752471
 H         5.0060726568        1.2081349437      -16.7870691370
 H         3.4081324287        1.1992861132      -17.3504150889
 H         3.7141397192        1.2427758453      -15.5605274955
 H         2.5851647840        4.6986089775      -16.2562213295
 H         2.8931442889        3.7175202532      -14.9340442669
 H         1.9450648157        2.9560856074      -16.1469821713
 H         8.8046858767        1.3873664979      -11.5239804609
 H        10.1020483191        0.5808834464      -12.3835695638
 H         8.3709697023       -0.1301951948      -12.1900457036
 H        10.5205213325        2.3707879489      -14.0332815333
 H         9.5726850713        2.9975087629      -12.7796366978
 H         9.1868758598        3.5455750046      -14.3883705721
 H         5.9176434514       -4.6197718356      -16.9801760206
 H         7.4081702468       -4.1662715065      -15.9677623473
 H         7.2336774116       -3.9020162314      -17.7578490085
 H         4.0868057507       -3.2340669422      -17.0522605152
 H         4.9922533043       -2.2193358818      -18.1739010321
 H         4.1127440856       -1.3664043436      -16.8746695335
 H         0.9640983666       -4.7869682812      -11.2650711458
 H         2.4358031140       -4.5948848091      -12.2482276304
 H         0.7405441687       -4.2574464516      -12.9304570350
 H         0.2216741671       -0.9896210735      -11.5273005375
 H        -0.4083013421       -2.4339064448      -10.7421381611
 H        -0.2359162090       -2.4124827555      -12.5412889679
 H         0.9684519813       -1.4182580238       -4.2222738549
 H         0.4248902717       -0.7247562342       -5.6546508564
 H         1.9255198314       -1.7592828584       -5.5347817347
 H        -0.2398918059       -4.8882282768       -4.5454274372
 H         0.3270984146       -3.6182286910       -3.3809834813
 H         1.4083537615       -4.1704755799       -4.6645358027
 H        -6.1411616636       -1.6700849947       -5.4540256744
 H        -5.0725298487       -0.5884047008       -4.5436277851
 H        -6.7986703638       -0.5295303131       -4.2903839316
 H        -6.1306634251       -0.6250577632       -1.7686853567
 H        -4.5265882540       -1.1694653118       -2.0265432858
 H        -5.4748257196       -2.2970245601       -1.2082434564
 H       -10.8606368118       -8.6133555099       -0.6374972680
 H        -9.7031166702       -7.5690852855        0.3321276243
 H        -9.3762462756       -8.2547331975       -1.2185658994
 H       -11.5585346106       -7.6374427010       -2.9666032892
 H        -9.8548057063       -7.4022394341       -3.2200071046
 H       -10.9967590089       -6.0974242491       -3.7195522199
 H       -16.0088763024       -1.1229054939       -0.2714680635
 H       -14.7966355323       -1.3465999567       -1.6697031703
 H       -14.2735062565       -1.1585418801        0.1454624106
 H       -15.3953632068       -3.2993782776        1.7606175657
 H       -16.3122129622       -4.4765277321        0.9318298013
 H       -16.9291187694       -2.8490088982        1.1055372034
 H       -17.3858217010       -7.0424193521       -5.8275040295
 H       -16.3751330715       -5.9095253757       -6.7099896610
 H       -17.7467941962       -6.4827524633       -7.4996214722
 H       -18.6949355672       -3.0221774781       -7.0084754312
 H       -18.9509695150       -4.5849336148       -7.8828692019
 H       -17.3594311099       -3.8120314855       -7.7115151547
 H       -23.7203058214       -5.4907113326       -4.9162041726
 H       -24.5188274449       -3.9536030713       -5.2759744749
 H       -24.9307402290       -4.8250559369       -3.8801616765
 H       -24.2312964362       -3.0432479183       -1.8687968998
 H       -24.2895341441       -2.0700771548       -3.4215049323
 H       -22.9981635738       -1.9700026735       -2.4806108207
 Na      -19.1921476514       -3.9387381301       -2.6114317181
 Na        7.5257775202        1.6470388888      -17.7476576906
