232

 C       -23.9812836970       -5.7679420926       -1.8554828745
 C       -22.8879285124       -4.7811411672       -2.2005930782
 O       -21.9510336669       -4.6968983600       -1.4409929433
 C       -23.0655225103       -3.9398570270       -3.4654098184
 C       -21.7092596750       -3.2848251064       -4.0237358039
 O       -20.8687348840       -2.8550940033       -3.2416403926
 C       -21.3785818049       -3.2464755904       -5.5082121396
 C       -20.7839771831       -4.6305625189       -6.1103550743
 C       -19.4377713981       -5.1193304059       -5.4322976561
 O       -19.5176462457       -5.6497511300       -4.3325875715
 C       -18.1252838118       -4.8899041851       -6.1557341558
 C       -17.2121371171       -3.9676766927       -5.1082973013
 O       -17.0076949870       -2.8417078543       -5.4012175171
 C       -16.8187235636       -4.6908253881       -3.8252344834
 C       -15.9939011801       -3.7336455936       -2.9851743535
 C       -16.4255798598       -3.7001254403       -1.5469391257
 O       -17.4644573115       -4.2387188532       -1.1587591237
 C       -15.4662645875       -2.9666141828       -0.5057279377
 C       -14.0821472104       -3.6735794432       -0.6561092501
 O       -13.3473811466       -3.5128185271       -1.5830616988
 C       -13.5014685111       -4.5921858631        0.5239874990
 C       -11.9500150821       -4.9881428075        0.2592787900
 C       -11.8496930605       -6.2700174673       -0.5295978723
 O       -12.8036658869       -6.8665395847       -0.8974792134
 C       -10.3820151876       -6.5378029697       -1.1421820064
 C        -9.4153612846       -5.2838023958       -1.0849870517
 O        -8.9259226263       -4.9662266882       -0.0405895378
 C        -9.1333437345       -4.3311274416       -2.3206548196
 C        -7.8817741284       -3.5946550612       -2.1293227402
 C        -7.3655146672       -2.9014781743       -3.4205320823
 O        -8.0069843463       -2.8586215354       -4.4348906891
 C        -6.0900307977       -2.0808869667       -3.4028752763
 C        -4.7759519217       -2.9634352440       -3.7314569346
 O        -4.4214589721       -3.7908176862       -2.9396083306
 C        -4.0285247415       -2.7666167702       -5.0710895269
 C        -2.5985190469       -3.4493727103       -5.1187513978
 C        -1.3922687785       -2.4108093660       -5.2148174571
 O        -1.6446837872       -1.2621970373       -4.8500620463
 C         0.1639753296       -2.6758276111       -5.6051466551
 C         0.3587240404       -3.0540856268       -7.1216209103
 O        -0.5603798180       -3.6793800996       -7.6428982026
 C         1.7565381972       -2.8377072282       -7.9349357453
 C         1.5161595074       -3.4406486459       -9.3883720787
 C         2.2995390273       -2.6560815015      -10.4958711715
 O         3.3468928460       -2.0840637271      -10.1866833148
 C         1.7575706522       -2.7599102135      -11.9661757331
 C         2.7225973843       -1.9651052293      -12.8832783600
 O         2.3373166385       -0.9575130350      -13.3760559663
 C         4.0678032555       -2.6034208921      -13.2073324620
 C         4.2661349563       -2.4499666628      -14.7753856801
 C         5.6264787052       -2.9642763581      -15.1579090721
 O         6.3081092989       -3.5721544471      -14.4154111073
 C         6.1556606765       -2.8525426096      -16.6524956277
 C         7.0320827608       -1.5633386621      -16.7406538100
 O         6.5918076962       -0.5203856522      -17.1221914225
 C         8.5111194467       -1.6754695964      -16.1665986044
 C         8.9431093574       -0.8002160411      -14.8376980724
 C         8.8359937350        0.6916230820      -14.8715186177
 O         8.9376385487        1.3703465123      -15.8790036648
 C         8.7217428498        1.4663560428      -13.3881766629
 C         7.2772591056        1.7662874091      -13.3435792241
 O         6.4971645750        0.8590120621      -13.1895607109
 C         6.7756991566        3.2623634444      -13.4962468542
 C         5.3405561323        3.3447113279      -14.0877135167
 C         5.4257578979        2.9795622818      -15.6570602368
 O         6.3460783671        2.3940377189      -16.2096057923
 C         4.0839823664        3.1848989266      -16.4192800805
 C         4.3956468338        3.8503100098      -17.8029507215
 O         4.2993909196        5.0502688001      -17.9842495098
 C         4.7860340468        2.9121501880      -19.0040102198
 C         4.2438047603        3.4164784641      -20.3427518230
 C         5.1749448746        2.8252765905      -21.4648490197
 O         5.5682399516        1.6969920703      -21.2680625037
 C         5.5234065910        3.6088207016      -22.8346004692
 C         7.1033249085        3.5151667550      -22.8023030546
 O         7.6349138180        2.6144574575      -23.4100647252
 C         7.9508304643        4.5160007834      -22.0587648386
 C         9.2902676967        3.8860636299      -21.5262365235
 C         9.1190026196        2.9211787439      -20.4176543315
 O         8.5750170176        3.2577730540      -19.4284344641
 C         9.8051846312        1.4205630643      -20.4570208609
 C         8.7770759959        0.3169498161      -20.6646644239
 O         7.9460261145        0.1371922854      -19.7925122606
 C         8.5991353332       -0.5835720768      -21.9956848288
 C        10.9991633849        1.4310066066      -21.5833788909
 C        10.6173279505        1.2013070346      -19.0736516576
 C         5.0455848790        2.7370915023      -24.0238042119
 C         4.8758725780        5.0816752869      -22.8926649806
 C         3.6028458273        1.7124024917      -16.5419008775
 C         2.9351801131        4.0587678883      -15.8195999834
 C         9.0418137267        0.3946985360      -12.2600958031
 C         9.7654127511        2.6639650943      -13.5009896267
 C         7.0038653626       -4.1647338094      -16.9256327571
 C         5.0929094259       -2.7762889292      -17.7946893204
 C         1.4714801012       -4.3013987981      -12.3881545169
 C         0.3583811362       -1.9649776473      -12.0366478651
 C         1.0209099995       -1.4438604107       -5.2929775209
 C         0.5267858415       -3.8900231497       -4.6911105638
 C        -6.1944622913       -0.8303525891       -4.4441618162
 C        -5.7506676399       -1.5503876166       -2.0404300546
 C        -9.8288417379       -7.7391568272       -0.3303243330
 C       -10.5817705048       -7.0159442648       -2.6472188861
 C       -15.1965930266       -1.5368585709       -0.9759303785
 C       -16.1425638480       -2.9501436002        0.8781154862
 C       -17.4360699996       -6.2177056187       -6.4125217339
 C       -18.3104322886       -4.0301744394       -7.4460157192
 C       -23.8078159655       -4.7984819685       -4.5874171415
 C       -23.8332160141       -2.7370171442       -2.9505611251
 H       -24.9044974369       -5.3823111544       -2.3062006213
 H       -24.1953102179       -5.7136442086       -0.7709852755
 H       -23.8874601509       -6.8054238634       -2.1942725805
 H       -20.5940084791       -2.5469214500       -5.6075863704
 H       -22.2134554062       -3.0999034101       -6.1100905783
 H       -20.7777798062       -4.4217877199       -7.1676747611
 H       -21.5547359551       -5.3932849694       -5.9759806595
 H       -16.3339933205       -5.6104760710       -4.0481186324
 H       -17.7272488666       -4.9591597755       -3.2201742907
 H       -15.9772973097       -2.7154760995       -3.4318003149
 H       -14.8999354568       -4.0824191259       -3.0529261368
 H       -13.9956979794       -5.5763734886        0.6223936354
 H       -13.6549437932       -4.0617639754        1.5000372300
 H       -11.3425006251       -4.9906412802        1.1934835146
 H       -11.4148375975       -4.2854139942       -0.4088445892
 H        -9.9452620551       -3.5479466238       -2.4259049092
 H        -9.1273003818       -4.8992082810       -3.2681422673
 H        -7.0804610657       -4.2616017290       -1.6672794386
 H        -8.0228027521       -2.8681699182       -1.2931257110
 H        -3.8826686974       -1.6555065659       -5.1693182967
 H        -4.6479105663       -3.0654713874       -5.9673170493
 H        -2.4129676063       -4.1185097731       -5.9915776561
 H        -2.5537495052       -3.9186895067       -4.1969940718
 H         2.6240834446       -3.3168753028       -7.4190212443
 H         1.9636715510       -1.7676604490       -8.0762165410
 H         0.5281690847       -3.2994872277       -9.7025402275
 H         1.8720767931       -4.5687084626       -9.3956618002
 H         4.0665636870       -3.6680497130      -12.8234269512
 H         4.8508481743       -2.0549772336      -12.7974137515
 H         4.2911185111       -1.3486169779      -14.8979153850
 H         3.5181527632       -3.0937503215      -15.2646423863
 H         9.2664366141       -1.5670518738      -16.9344517650
 H         8.5285039660       -2.6716058595      -15.7387118046
 H        10.0086209778       -1.1318007669      -14.5067425178
 H         8.2269363393       -1.0936509829      -14.0434686791
 H         7.4435320883        3.9023009636      -14.0013504406
 H         6.7814816826        3.6803670359      -12.5058633956
 H         5.1122565455        4.3803506672      -14.0353214818
 H         4.7205869968        2.8475485547      -13.4672324971
 H         4.4206795850        1.8944514334      -18.7167345596
 H         5.9427064748        2.9596282655      -18.9867749006
 H         4.2921035364        4.4858011933      -20.3821877311
 H         3.2279086748        3.0293937978      -20.4844218267
 H         7.4444709008        5.0475892038      -21.2143732025
 H         8.1090629145        5.2207152359      -22.8540419803
 H         9.9072710760        4.6293010963      -21.1037098712
 H         9.7072184903        3.2978154260      -22.3910819744
 H         9.2297587199       -1.4543772075      -22.0341625806
 H         8.5481010206       -0.0222782755      -22.9728425850
 H         7.5676786660       -0.8935741204      -21.9674429705
 H        11.5620426742        0.5662283647      -21.4367390230
 H        11.5596943051        2.3839954446      -21.4478563558
 H        10.5712839657        1.2163998147      -22.5619411435
 H        10.7923827554        0.1393700517      -18.9281894047
 H        10.0656763302        1.6312492277      -18.1869252584
 H        11.5379191376        1.8078616558      -19.0759089697
 H         5.4396248038        1.7458594175      -24.0374144449
 H         5.3655383102        3.2316650006      -24.8971933017
 H         3.9194185863        2.6938035487      -24.0568042526
 H         5.1691061961        5.4961645357      -23.8286068842
 H         5.1115131996        5.7635665944      -22.0867198091
 H         3.7961698407        4.9894076576      -23.1451999582
 H         4.2963770778        0.9368033989      -16.8567096036
 H         2.7679619280        1.8773571946      -17.2344605912
 H         3.1016714031        1.4275962072      -15.6107507791
 H         3.2271006389        4.9974041773      -15.3884680672
 H         2.4573485977        3.4484247083      -15.0528998077
 H         2.2639925314        4.3050348668      -16.6330836465
 H         9.1132800727        0.8849452143      -11.2852958082
 H        10.0219264872        0.0919099268      -12.4944449963
 H         8.3692567174       -0.4774107706      -12.3592818948
 H        10.7481088019        2.2885992588      -13.7453697031
 H         9.8887887112        3.2523699288      -12.5493249637
 H         9.4850319355        3.2873787751      -14.2729994757
 H         6.2569035709       -5.0248199590      -17.0851605753
 H         7.6228911322       -4.6224975023      -16.0688056653
 H         7.7373553172       -4.0321747320      -17.7293357535
 H         4.5171981633       -3.6991817238      -17.8405876649
 H         5.6138715804       -2.5420426414      -18.7782899639
 H         4.3027886580       -2.0419522503      -17.6445169529
 H         0.4730434630       -4.4844672455      -11.9633811670
 H         2.1305398291       -4.9997218642      -11.7833886946
 H         1.5245394967       -4.5633854659      -13.4636124764
 H         0.5371789409       -1.0267410556      -11.5177307350
 H        -0.5173681192       -2.5023898057      -11.6273387294
 H         0.1515605999       -1.6895909714      -13.0593114288
 H         1.2129163952       -1.3125600057       -4.2044889425
 H         0.6827356502       -0.4882437578       -5.5278650737
 H         1.9516818836       -1.5493166495       -5.7902692469
 H        -0.0709709303       -4.7375318204       -4.8226076981
 H         0.4615888107       -3.5886162696       -3.6208523566
 H         1.5742844095       -4.1460192206       -4.8262519419
 H        -6.6937674431       -1.1172400908       -5.3286338248
 H        -5.2202057904       -0.3768569309       -4.6593722717
 H        -6.7592391946       -0.0880128536       -3.8964698017
 H        -6.4317565517       -0.6590696989       -1.7077500153
 H        -4.7028151861       -1.2752631361       -1.9405931316
 H        -5.8970982551       -2.2984489268       -1.2410505998
 H       -10.6511731609       -8.3319744385       -0.0311536329
 H        -9.2606897104       -7.5219569846        0.5404807772
 H        -9.0457988279       -8.3417848309       -0.8972175851
 H       -11.2601340101       -7.8905704412       -2.7734829510
 H        -9.6535647518       -7.3187290236       -3.1182739999
 H       -11.0574622645       -6.2046126071       -3.1934639253
 H       -16.1657626262       -0.9788706164       -0.8181521706
 H       -14.7736262737       -1.5576285591       -1.9473124971
 H       -14.3373376406       -1.1762057279       -0.3951039976
 H       -15.4671879779       -2.5786208195        1.5816769192
 H       -16.4487726382       -3.8830884788        1.2247883618
 H       -16.9071401846       -2.2433206406        0.8989839271
 H       -17.0908296956       -6.3556601697       -7.4036329934
 H       -18.1196034547       -7.0373910261       -6.1073182277
 H       -16.5539638833       -6.3361705131       -5.7490110280
 H       -19.0207099772       -3.1962178751       -7.0487134053
 H       -18.6952022503       -4.6510336459       -8.1975856074
 H       -17.4310097709       -3.6605754456       -7.8337376257
 H       -23.0670447493       -5.4737722913       -5.0260086025
 H       -24.0932298683       -4.1550994903       -5.3691580789
 H       -24.6325137552       -5.4023209508       -4.1982127725
 H       -24.7380999506       -3.0065655119       -2.5001131287
 H       -24.0193289872       -1.9281136211       -3.6767814155
 H       -23.1507494976       -2.2967067034       -2.1798670649
 Na      -19.6016325811       -4.3952717797       -1.9155924064
 Na        7.6166820453        1.5900708703      -17.7910464722
