232

 C       -24.1052289990       -5.7925978911       -1.7981925181
 C       -22.8930509564       -4.8167731653       -2.0620654772
 O       -22.0101514336       -4.6286791408       -1.2885151057
 C       -23.0199528093       -3.9706830513       -3.4032577779
 C       -21.5963218542       -3.5169889528       -3.9678008806
 O       -20.9058821682       -2.9925977867       -3.1503996688
 C       -21.3978204846       -3.3089630697       -5.4765735093
 C       -20.7900389285       -4.5101208573       -6.2147841354
 C       -19.5429991574       -5.0426409125       -5.5219926910
 O       -19.6866888604       -5.4924349657       -4.3643598134
 C       -18.0985404910       -4.9704089436       -6.1515224270
 C       -17.2745086685       -4.1046748472       -5.1389370745
 O       -16.9100960909       -2.9392384059       -5.4205219375
 C       -16.8638296446       -4.6497648289       -3.8044693018
 C       -16.0195426322       -3.6153196173       -3.0140187518
 C       -16.3826038535       -3.6529234824       -1.5148749072
 O       -17.4345684754       -4.1456551202       -1.1635549467
 C       -15.4140655452       -2.9708665954       -0.5228092877
 C       -13.9872381516       -3.6843743901       -0.6554870700
 O       -13.3665151172       -3.5362332452       -1.7033337130
 C       -13.4553009099       -4.5178059542        0.4971291893
 C       -12.0366663519       -4.9619276286        0.2556034614
 C       -11.8469600760       -6.0904902590       -0.7502776220
 O       -12.6706779568       -6.9705824973       -0.8473093931
 C       -10.3728395033       -6.4772807810       -1.1633585105
 C        -9.4628443169       -5.2328535476       -1.0494297655
 O        -8.9070352143       -4.9337971277        0.0014775800
 C        -9.2532583064       -4.3346482678       -2.2603260560
 C        -7.8775140240       -3.5522088994       -2.1835620693
 C        -7.3443730883       -2.8368440464       -3.4326409330
 O        -8.0949170327       -2.9396878941       -4.4186204421
 C        -5.9268600111       -2.0513162603       -3.3801418115
 C        -4.6771907758       -2.9599035336       -3.7883898783
 O        -4.3108869919       -3.8038396107       -3.0152381276
 C        -3.8554500915       -2.6499049101       -5.0543035473
 C        -2.5401923816       -3.3597493392       -5.2545853501
 C        -1.4309712286       -2.2770288289       -5.3009109904
 O        -1.6322055709       -1.2173791387       -4.7843322910
 C         0.1699188083       -2.6596549856       -5.6674516334
 C         0.3636411658       -3.0619472556       -7.1877605200
 O        -0.5855452669       -3.6046076493       -7.7419514321
 C         1.6240715350       -2.8013854721       -7.9510845784
 C         1.4229737466       -3.3754107902       -9.3955552136
 C         2.2834295592       -2.6813549474      -10.5282603858
 O         3.3878708924       -2.2077898218      -10.3534442850
 C         1.6959995888       -2.7050182319      -11.9186327529
 C         2.6574139560       -2.0472837236      -12.9213381501
 O         2.4340753542       -0.9433044492      -13.4516356007
 C         3.9956819968       -2.6724218597      -13.3606939029
 C         4.2428567974       -2.5801771004      -14.9430321536
 C         5.6341050230       -3.0979240868      -15.1994212338
 O         6.2884060615       -3.6055055097      -14.2655371985
 C         6.2197201585       -2.8661399928      -16.6450916745
 C         7.1505219896       -1.5761769585      -16.6318589716
 O         6.6176880795       -0.5839907322      -17.1648028438
 C         8.5973647088       -1.4982585720      -16.1897995340
 C         8.7043269334       -1.0267472814      -14.7719216684
 C         8.9813204927        0.5291354143      -14.7911804239
 O         9.0841996591        1.1748706959      -15.8013577314
 C         8.9541965207        1.2921642059      -13.4977936513
 C         7.2969027486        1.8120861449      -13.3640690715
 O         6.4963400583        0.9260912998      -13.1423183057
 C         6.9222125709        3.2286612517      -13.5220771980
 C         5.4841060307        3.4298731905      -14.1040747190
 C         5.2110945381        2.9741982658      -15.5412434853
 O         6.1358940785        2.4173225688      -16.0847214252
 C         3.8594863817        3.1250323278      -16.3933736182
 C         4.3389341387        3.8372778385      -17.7706675575
 O         4.3361447873        5.0583640490      -17.8843111960
 C         4.6396396929        2.9025866506      -19.0757350917
 C         4.1290834092        3.3507103273      -20.4326260434
 C         5.0787529970        2.7706674705      -21.5288485897
 O         5.7300975917        1.7595682391      -21.2929418361
 C         5.3966181057        3.5375042906      -22.7809040185
 C         7.0276519557        3.5821656910      -22.8588335187
 O         7.5234527510        2.6457898039      -23.4769043711
 C         7.9600958317        4.5637030879      -22.0443668870
 C         9.2495713388        3.8781626479      -21.5829178778
 C         9.1337268016        2.8993657979      -20.3609124450
 O         8.4114218098        3.1663158008      -19.4329920361
 C         9.8956482034        1.4445883285      -20.3905410464
 C         8.7196882925        0.3342023417      -20.5588252804
 O         8.0617978044        0.0593062734      -19.6322683565
 C         8.7304569770       -0.4324652646      -21.8439796920
 C        11.0630408622        1.4198107592      -21.5073197571
 C        10.6616677460        1.1363026955      -19.1248972934
 C         4.9867767340        2.5877374355      -23.9340421350
 C         4.7590707964        4.8891874978      -22.8825162111
 C         3.3229827887        1.7273611790      -16.6297234956
 C         2.9192320816        4.0874743146      -15.7496197753
 C         9.1964686738        0.4476205051      -12.2496751586
 C         9.8072250089        2.6019882484      -13.4444554980
 C         7.0777700843       -4.1120596762      -17.0100696642
 C         5.1094201547       -2.6835515768      -17.7580666245
 C         1.6567227840       -4.1671393690      -12.3188097744
 C         0.3647808013       -1.9014590214      -12.0214910837
 C         0.9804757681       -1.4432158271       -5.2174523667
 C         0.4030391211       -3.8766540431       -4.8795737951
 C        -6.1907473548       -0.9079129008       -4.4083263057
 C        -5.7076488105       -1.4124783328       -1.9724417985
 C        -9.7575935613       -7.6178904177       -0.2283030396
 C       -10.6461327804       -7.0141787347       -2.5824411725
 C       -15.3176570828       -1.4253629350       -0.9675424453
 C       -16.0347574275       -3.0499038268        0.8561460854
 C       -17.3659058305       -6.3503338125       -6.5604234561
 C       -18.1610927563       -4.0052743654       -7.4784399581
 C       -23.8331271381       -4.6719388854       -4.5408071065
 C       -23.8451565257       -2.6761374073       -3.0530577912
 H       -24.9914901350       -5.3063618002       -2.0300961834
 H       -24.2615897399       -6.2387160869       -0.7936468750
 H       -24.0207710513       -6.5681908233       -2.5228625318
 H       -20.6366327076       -2.5026904130       -5.5541716868
 H       -22.3443708891       -3.1198562981       -5.9186283390
 H       -20.6463094868       -4.2019303144       -7.2532931966
 H       -21.5108364016       -5.3547791519       -6.2106550801
 H       -16.3159032446       -5.6116314162       -3.9763720763
 H       -17.6830100553       -4.9120628550       -3.2224524101
 H       -16.0972038097       -2.6666836125       -3.4721282205
 H       -14.9417460612       -3.9289605837       -3.2022044544
 H       -14.0333125311       -5.4555804020        0.6189970196
 H       -13.5823236646       -3.9546052926        1.4570897461
 H       -11.5621669712       -5.2927370544        1.1523174828
 H       -11.3498048079       -4.1053131053       -0.0827292445
 H       -10.0932027731       -3.6096476651       -2.3644289987
 H        -9.2677839125       -4.9510190985       -3.1584646565
 H        -7.0206819932       -4.2778670124       -1.8718851933
 H        -7.8687076525       -2.8903990601       -1.2500482724
 H        -3.6552525689       -1.5260407944       -5.0261301283
 H        -4.5052864655       -2.8085035034       -5.9752512776
 H        -2.4727062307       -3.9449587303       -6.1308727987
 H        -2.3667979869       -3.9066037920       -4.3221973080
 H         2.4642838177       -3.3394095826       -7.5434127645
 H         1.9100096791       -1.7237167275       -8.0087565695
 H         0.4390045709       -3.3281018057       -9.7937048731
 H         1.8237399999       -4.3721764399       -9.2965668067
 H         4.1539548200       -3.7175502868      -13.0864106442
 H         4.7765771994       -2.0735036000      -12.9022681733
 H         4.2303920618       -1.5666818164      -15.3437886405
 H         3.6190710682       -3.3455318737      -15.2959156576
 H         8.9998669647       -0.5855071571      -16.6593623076
 H         9.0941682930       -2.3969067706      -16.4371458239
 H         9.6075007006       -1.4838014846      -14.2537329955
 H         7.7858353267       -1.2265850684      -14.1505995755
 H         7.7013112259        3.6886877367      -14.1000741864
 H         6.9991012275        3.6774141226      -12.5643631124
 H         5.1258624566        4.3653268578      -13.8022988322
 H         4.9867114345        2.7498547488      -13.4398024080
 H         4.4032430247        1.8234808765      -18.8830548414
 H         5.6757414231        3.0406122488      -19.0282133834
 H         4.1006005936        4.4063120454      -20.5306182308
 H         3.1941419125        2.8313572375      -20.5022916440
 H         7.5919055546        4.9899749437      -21.1145672668
 H         8.1171532338        5.3660182923      -22.7559359054
 H         9.7915179976        4.6616609423      -21.1214389807
 H         9.7374867417        3.3954341505      -22.3855049015
 H         9.6625824210       -0.7976855171      -22.0242018452
 H         8.4953222003        0.3887482141      -22.5359870228
 H         7.9477858315       -1.1484668834      -22.0732311914
 H        11.3375474481        0.2994848165      -21.7883244367
 H        11.8554542556        2.0633256961      -21.1028101018
 H        10.6624138725        1.7199579279      -22.4175272284
 H        10.6559128528        0.0763097858      -18.9904846916
 H        10.0710087889        1.6016495100      -18.3477060807
 H        11.6054455834        1.6300585193      -18.9845037021
 H         5.3349017612        1.6192530130      -23.8229880662
 H         5.4411240131        3.0499489460      -24.8321225559
 H         3.9268756309        2.5951833516      -24.0832813585
 H         4.8115055146        5.0910846733      -23.9332927927
 H         5.0978652546        5.6445955790      -22.2825808257
 H         3.7177038951        4.7639185290      -22.8308820072
 H         4.0508441054        1.2232573529      -17.2139676403
 H         2.2480089404        1.6996925059      -17.0801967548
 H         3.2743011145        1.1754651536      -15.6773319323
 H         3.2419699388        5.1286288118      -15.8992555254
 H         2.8315036361        3.8431864739      -14.6838101462
 H         1.9864599019        4.0693778257      -16.2465658559
 H         9.1383568859        1.0786842326      -11.4073805359
 H        10.2275706638        0.0539345018      -12.3185536237
 H         8.5501197138       -0.3764201770      -12.2574967107
 H        10.8731563721        2.5219046483      -13.4583359919
 H         9.5582692472        3.0531014546      -12.4830053962
 H         9.5504331458        3.3297369415      -14.2701307201
 H         6.4894871010       -4.8060392349      -17.5511748755
 H         7.5207530367       -4.7298474618      -16.2761296228
 H         7.9045594280       -3.7254689073      -17.6345917679
 H         4.5231818087       -3.6613673589      -17.8598975833
 H         5.5334603048       -2.3322815703      -18.7539968431
 H         4.2984163927       -2.0267702552      -17.4643843349
 H         0.7279672949       -4.7000718339      -12.1231349585
 H         2.4148657129       -4.6412027809      -11.7479470635
 H         1.9478596699       -4.2840544099      -13.3989578251
 H         0.5114511177       -0.9269954500      -11.4912729934
 H        -0.5055845439       -2.4691758291      -11.6671650811
 H         0.1669190923       -1.6430910851      -13.0718463923
 H         1.4580587749       -1.4761681333       -4.2117600585
 H         0.5075989698       -0.4595365239       -5.2005378233
 H         1.7669228151       -1.2767797484       -5.9594506356
 H        -0.2542619468       -4.6976809730       -5.1484583116
 H         0.2351318328       -3.6384954492       -3.8026631112
 H         1.4453948765       -4.2512294858       -4.9374500017
 H        -6.3710513996       -1.3725349573       -5.3326578881
 H        -5.3555990973       -0.2820131459       -4.4846009250
 H        -7.0667089933       -0.2904822297       -4.0924036490
 H        -6.4889079802       -0.6781968952       -1.7559226892
 H        -4.7290686752       -0.9270309200       -1.8987274543
 H        -5.7913271402       -2.1064105570       -1.1310011693
 H       -10.5132846300       -8.1527800985        0.3094016845
 H        -9.1457172649       -7.1525196173        0.5704442833
 H        -8.9682107912       -8.2579006224       -0.6776078456
 H       -11.3688356185       -7.8944134049       -2.5297591014
 H        -9.7618207603       -7.4478522874       -3.0379093846
 H       -11.1350852474       -6.3086946145       -3.2156074296
 H       -16.1750518969       -0.9233786365       -0.5621945251
 H       -15.1348090874       -1.3756093730       -2.0778377028
 H       -14.2981914175       -1.0993032478       -0.6051451434
 H       -15.3170639749       -2.9225831524        1.6939950238
 H       -16.5324700248       -4.0170523584        1.0390893422
 H       -16.7683821309       -2.2295382548        1.0292878998
 H       -16.8626994292       -6.2190670000       -7.5958538268
 H       -18.0236938180       -7.1628009780       -6.5323734081
 H       -16.5519340015       -6.5700948114       -5.8882769021
 H       -18.7049938845       -3.1324879247       -7.1716073915
 H       -18.6184942142       -4.5953135730       -8.3105756894
 H       -17.1445552606       -3.8002531041       -7.8341313964
 H       -23.3595723728       -5.6287115993       -4.9083289770
 H       -23.8701420933       -3.9921624917       -5.3364020243
 H       -24.7696096571       -4.8601739043       -4.1794628388
 H       -24.7268729224       -2.8937111431       -2.4779694522
 H       -24.2251104403       -2.1669225422       -3.9251288603
 H       -23.2152136067       -2.0216242179       -2.5008432719
 Na      -19.6680891246       -4.4330108003       -1.8305667600
 Na        7.6793221979        1.5958922211      -17.8249327678
