232

 C       -24.2170798395       -5.7789498869       -1.6338164241
 C       -23.0245334429       -4.8339163566       -1.9986520346
 O       -22.0386305549       -4.6634599989       -1.2888494206
 C       -23.1425428439       -3.9535752811       -3.3647275474
 C       -21.6391280248       -3.5974076528       -3.9530645325
 O       -20.7504135098       -3.2776272752       -3.1825480959
 C       -21.3564639633       -3.1671749701       -5.4725678756
 C       -20.8446221416       -4.3352819327       -6.2685089136
 C       -19.4992941942       -4.8773370999       -5.5753155817
 O       -19.6074355752       -5.2987504308       -4.4683405276
 C       -18.0996031948       -4.9464287045       -6.3236030671
 C       -17.1919508712       -4.0823599500       -5.2478444414
 O       -16.7576884002       -3.0427129793       -5.5441536206
 C       -16.7847060142       -4.6852208464       -3.8977580821
 C       -16.1777191424       -3.6272343625       -2.9670553618
 C       -16.5258351540       -3.6069408624       -1.5360407761
 O       -17.6106922087       -3.9213508035       -1.0092162939
 C       -15.3964187935       -2.9595999606       -0.5639842496
 C       -13.9870897560       -3.6185961137       -0.8196508793
 O       -13.4134392972       -3.5246228129       -1.8507902408
 C       -13.4170873339       -4.4532351835        0.4738488410
 C       -11.9344929141       -4.8595198987        0.3380501194
 C       -11.8430219585       -6.0787595676       -0.6172138796
 O       -12.7740396636       -6.8176395568       -0.7115175834
 C       -10.3668878526       -6.4250656580       -1.0924792629
 C        -9.4228844509       -5.0858897509       -1.0852969895
 O        -8.9727809352       -4.7790495647       -0.0211100734
 C        -9.0444190829       -4.2447375211       -2.3276500042
 C        -7.6299961940       -3.5761647066       -2.1446937979
 C        -7.1820320758       -2.9390210360       -3.4286523998
 O        -7.8574604113       -2.9863755667       -4.4012148845
 C        -5.7753455169       -2.0063543480       -3.5113974725
 C        -4.6514645234       -2.8892250177       -3.8575231152
 O        -4.2800805206       -3.8154183208       -3.1606334202
 C        -4.0315619887       -2.4252609371       -5.1397230091
 C        -2.6106721047       -3.0201458608       -5.3822538668
 C        -1.3737019804       -2.0959855824       -5.1964805725
 O        -1.5015594314       -0.9015227234       -4.8993847497
 C         0.0224905631       -2.6206834692       -5.7307766350
 C         0.0364478390       -2.8925246419       -7.2305183964
 O        -0.9137900364       -3.4575682620       -7.7448943917
 C         1.2995011600       -2.5522215659       -8.0799947073
 C         1.3856616139       -3.1712977136       -9.4868543505
 C         2.4088833175       -2.6481115569      -10.5346539656
 O         3.5604487745       -2.3445510365      -10.2777923226
 C         1.7815021958       -2.6604562584      -12.0229042305
 C         2.6748584098       -1.9245528344      -13.0849634110
 O         2.4388089984       -0.8749839492      -13.5790727125
 C         3.8901135714       -2.7201215147      -13.4796817902
 C         4.3929823538       -2.8491992489      -14.9855192345
 C         5.8674356579       -3.0807112706      -15.2426973191
 O         6.5157634416       -3.6509453215      -14.4563189727
 C         6.2798444386       -2.8328505256      -16.8006737588
 C         7.1411969530       -1.5484149633      -16.7932774590
 O         6.6112937403       -0.5510737601      -17.1062123276
 C         8.5595553956       -1.6678574719      -16.1542219387
 C         8.4748433492       -1.0057254139      -14.7513663820
 C         8.9803168343        0.4906939892      -14.7227053736
 O         9.5197982152        1.0818010973      -15.6731471768
 C         8.9013883686        1.2835558593      -13.3949571998
 C         7.3913644036        1.7091334862      -13.2715178258
 O         6.5100953154        0.8890229451      -13.0557892690
 C         6.9950247025        3.2037240451      -13.9073996386
 C         5.4793975028        3.3349095681      -14.2761096256
 C         5.1304116860        2.8691530696      -15.6159617770
 O         6.0364640723        2.3070104977      -16.2374158925
 C         3.8056628066        3.1065941131      -16.2694541619
 C         4.2180693079        3.7568780861      -17.6583540776
 O         4.2951123084        4.9465345938      -17.8014289153
 C         4.6080928020        2.7395465252      -18.8065665894
 C         4.1984955325        3.2999758114      -20.3479063191
 C         5.1971442526        2.7413265301      -21.3361545376
 O         5.7996008864        1.7343155765      -21.0734164552
 C         5.3425227750        3.3516146383      -22.7504970980
 C         6.9573500739        3.4629473203      -22.9187254906
 O         7.6264595394        2.7791876179      -23.6461443210
 C         7.5695004157        4.3092153212      -21.8602024015
 C         9.0283061985        3.8032089285      -21.4994259751
 C         8.9844359264        2.7940375131      -20.3600051770
 O         8.1270095756        2.9795030195      -19.5252574005
 C        10.0176627003        1.4905027004      -20.3074312579
 C         9.0360917901        0.3433360307      -20.4884736409
 O         8.3339221173        0.0974752905      -19.4934000099
 C         8.6148108336       -0.2542688256      -21.9080542891
 C        11.1473030277        1.5002163993      -21.5152257846
 C        10.7074399683        1.4408489816      -18.8605283825
 C         4.7925906023        2.4272799628      -23.9143641229
 C         4.7169594557        4.7190113138      -22.9938430654
 C         2.8651074007        1.8409015972      -16.3666536188
 C         2.8376399621        4.1045442093      -15.4536561231
 C         9.2824332117        0.4885131776      -12.1059250661
 C        10.0255031095        2.4945994086      -13.5632150121
 C         7.2831115086       -4.0341599163      -17.1573729116
 C         5.0680098260       -2.7090829168      -17.7638520757
 C         1.4608377752       -4.1255616569      -12.3957991713
 C         0.2766428526       -2.0208466471      -12.0526269022
 C         1.1354754758       -1.6533801647       -5.2974386290
 C         0.4267900467       -3.9988490376       -5.0985431663
 C        -6.1912046066       -0.8850108778       -4.5079758542
 C        -5.6382679015       -1.4550796790       -2.0801966241
 C        -9.7411766939       -7.5022590533       -0.1072788158
 C       -10.3373677012       -7.0199105052       -2.5593476509
 C       -15.2612135069       -1.4248726799       -0.8009031016
 C       -15.8742915764       -3.0838553360        0.9413057892
 C       -17.7229359607       -6.4526188311       -6.4838222733
 C       -18.1178530551       -4.1674264713       -7.6909573984
 C       -23.9174436573       -4.7972376816       -4.3805035695
 C       -23.7123370110       -2.5560612783       -3.0862649587
 H       -24.9020917318       -5.3000440458       -0.8839368424
 H       -23.9068387422       -6.6762311088       -1.1167478869
 H       -24.7472887750       -6.1714938993       -2.5047499493
 H       -20.6354552078       -2.3343294193       -5.4764536432
 H       -22.4154912801       -2.9019670890       -5.7943234567
 H       -20.7129810276       -4.1639301916       -7.3616620940
 H       -21.4699668768       -5.2428136433       -6.1276907395
 H       -15.9648612618       -5.3168130399       -4.1725196391
 H       -17.5000958984       -5.4382913527       -3.4005140108
 H       -16.4708942387       -2.6344720909       -3.3920277391
 H       -15.1467309670       -3.7234982248       -3.1164517385
 H       -14.0694864886       -5.3251833324        0.6223128140
 H       -13.5397121543       -3.8906017758        1.3854770057
 H       -11.5291482427       -5.2913318383        1.3081581464
 H       -11.3105569179       -4.0300327185        0.2383817005
 H        -9.8336240153       -3.5283222698       -2.4297210693
 H        -8.9695664026       -4.7707870728       -3.2887468421
 H        -6.8901508118       -4.2211873389       -1.8468444113
 H        -7.5591018906       -2.8814578880       -1.3776565973
 H        -3.9042876282       -1.3875783909       -4.9976911086
 H        -4.7142164431       -2.5546973952       -5.9457809420
 H        -2.5278318387       -3.1921954117       -6.5150294782
 H        -2.3734601772       -3.9317296981       -4.7984697465
 H         2.1818582425       -2.9371535035       -7.5255652675
 H         1.4706100692       -1.5174475756       -8.1981841814
 H         0.4384819831       -3.1854802924      -10.0213154949
 H         1.7891231627       -4.2303502196       -9.3633966817
 H         3.8859951819       -3.7561359914      -13.0558459836
 H         4.7436684455       -2.2435155839      -12.9653354309
 H         4.2375857152       -1.9181788892      -15.4857632897
 H         3.9216858391       -3.7955500800      -15.3376377996
 H         9.3810982994       -1.2132130783      -16.7520750780
 H         8.5913366396       -2.7779385245      -16.0252684800
 H         9.0512521109       -1.5521585436      -14.0516276619
 H         7.4386612783       -0.9897645405      -14.5199370333
 H         7.5820369048        3.4637412144      -14.8325663572
 H         7.3535775358        3.9269508094      -13.0743440429
 H         5.2455060244        4.4856004299      -14.1826116587
 H         4.8928621926        2.9160163710      -13.3968500080
 H         4.1669030424        1.8477339944      -18.4716958775
 H         5.7065135688        2.5748499053      -18.6894715110
 H         4.3450645103        4.4324780912      -20.3093755119
 H         3.2024175822        2.8455584651      -20.5973636697
 H         6.8910255253        4.2090326456      -20.9981759534
 H         7.6519327101        5.3923928981      -22.0577291079
 H         9.6299169263        4.7048219278      -21.2221632897
 H         9.3588953580        3.2381511082      -22.4348016933
 H         9.5169690450       -0.7258145165      -22.3815177453
 H         7.9782516253        0.3484960374      -22.5751158568
 H         7.9754993597       -1.0846256019      -21.6818530440
 H        11.8256000486        0.7975583271      -21.2877712963
 H        11.5690140017        2.4888295848      -21.4194851065
 H        10.6985493442        1.2091985713      -22.5077441081
 H        11.2038261031        0.4883193376      -18.7913218498
 H        10.0283959601        1.6808985719      -18.0287346269
 H        11.3858376902        2.2677638767      -18.7803329865
 H         5.0202874434        1.3331207194      -23.8382037692
 H         5.0379238019        2.8323148009      -24.8644330657
 H         3.6751254456        2.5829186813      -23.8224457377
 H         4.8683206349        5.0434162046      -24.0117976528
 H         5.1689085674        5.3966394748      -22.2182443953
 H         3.6139152619        4.7276848462      -22.7523376183
 H         3.4816407061        0.9317570756      -16.6350145450
 H         2.0529807333        2.0586173303      -17.0017881624
 H         2.4186947208        1.6466064946      -15.3804130724
 H         2.8086419380        5.0165015655      -16.0265325313
 H         3.1837095966        4.2703977518      -14.4316567347
 H         1.7453073866        3.8455392598      -15.4431363733
 H         9.2500587399        1.2697561773      -11.2973903622
 H        10.1549687066       -0.1188089388      -12.1497088751
 H         8.3843221294       -0.2136218899      -11.9254769757
 H        10.9996974300        2.1209515960      -13.1045618016
 H         9.8224178154        3.4492813083      -12.9972224120
 H        10.2737455507        2.7643010882      -14.5552005180
 H         6.6962181052       -4.9014343657      -17.4901412700
 H         7.8414753629       -4.4173738412      -16.3036153215
 H         7.9433676053       -3.8130658065      -17.9000964215
 H         4.3509337460       -3.4478992336      -17.6815680591
 H         5.5646492627       -2.8628949809      -18.6865264756
 H         4.5092793313       -1.7682369288      -17.7553063877
 H         0.7496038007       -4.5506270316      -11.7218719797
 H         2.3223049910       -4.8099430217      -12.4341085858
 H         1.0144682594       -4.1241446726      -13.3301153675
 H         0.2318667045       -0.9753731733      -11.8423452915
 H        -0.3746999954       -2.6476952852      -11.4491142406
 H        -0.1471525666       -2.1990384994      -13.0402667179
 H         1.5180108940       -2.0707641728       -4.3489871130
 H         0.7762309491       -0.6354422129       -5.0075193909
 H         1.9602334081       -1.3285094644       -5.9324282022
 H        -0.0472127696       -4.8199327925       -5.6506181904
 H         0.2435041709       -4.1544433039       -4.0285357176
 H         1.4990900367       -4.1292924511       -5.2769244921
 H        -6.1955413036       -1.2635848507       -5.5556157683
 H        -5.4268014519       -0.0514821106       -4.4064343906
 H        -7.1658811077       -0.5143660217       -4.2982684837
 H        -6.5205863279       -1.2426055616       -1.4575295240
 H        -5.0401758628       -0.5797830134       -2.1061838890
 H        -5.1840996870       -2.1591102618       -1.4217299488
 H       -10.3013105019       -8.4440355313       -0.1234374944
 H        -9.6092198146       -7.3467901673        0.9520284852
 H        -8.7309729803       -7.6235458921       -0.5004710395
 H       -10.9240744872       -7.8887681636       -2.7268613218
 H        -9.3114989372       -7.2830604106       -2.8342177576
 H       -10.7861284134       -6.3116461698       -3.2961816614
 H       -16.3147972006       -1.0736011047       -0.7165830247
 H       -14.8894796517       -1.3555243330       -1.7633436294
 H       -14.5849929881       -0.9533750143       -0.1394300421
 H       -15.4275640165       -2.4212226162        1.7227670375
 H       -15.7254738715       -4.1373724139        1.2978334375
 H       -16.9886412918       -2.9684840002        1.0076238652
 H       -16.7331626154       -6.5807543753       -6.6857730764
 H       -18.4186524041       -6.9914923180       -7.1816745963
 H       -17.8812840250       -6.8813673513       -5.4742275667
 H       -18.3895811264       -3.0800496401       -7.3953919860
 H       -18.7331749009       -4.6014459716       -8.4505795096
 H       -17.1006623865       -4.2238950656       -8.0144446450
 H       -23.5385624219       -5.7907657355       -4.2505412797
 H       -23.7510352435       -4.3733550817       -5.3972804490
 H       -25.0313418727       -4.7859312851       -4.1052151554
 H       -24.7237256114       -2.6264569138       -2.6870289732
 H       -23.9607511956       -2.0117213217       -4.0023226237
 H       -23.0924525804       -2.0262434052       -2.3093183038
 Na      -19.7324134327       -4.5828445612       -1.7090573699
 Na        7.7016464072        1.3672621161      -17.5864170619
