232

 C       -17.1966642011      -13.9573002234       -0.3181914564
 C       -16.5027125287      -14.0594218626       -1.6242143381
 O       -16.5658737733      -13.1431516044       -2.4078967741
 C       -15.4277280662      -15.3910135171       -1.8290696147
 C       -14.8761322687      -15.3409256587       -3.3429303112
 O       -15.7179941497      -15.0152475124       -4.1988748845
 C       -13.3857735255      -15.7024280054       -3.6754637215
 C       -13.1568274454      -15.6291049379       -5.1908593872
 C       -13.6149265879      -14.1779057905       -5.7320542159
 O       -13.6042390575      -13.2894379981       -4.9458274476
 C       -13.9790066856      -13.8888391512       -7.1956606031
 C       -14.9448952605      -12.6663587160       -7.1820467508
 O       -16.1686546565      -12.8238224518       -6.9489466011
 C       -14.3333500122      -11.3212289653       -7.3723348847
 C       -15.2203899901      -10.1099817854       -7.6578652750
 C       -15.8731364964       -9.4830791167       -6.4434138279
 O       -16.0807900724      -10.0934493963       -5.4194777044
 C       -16.1847886016       -7.9764164111       -6.3978439646
 C       -14.7560067009       -7.2207324240       -6.2611219833
 O       -13.8177360877       -8.0068568658       -6.2052833662
 C       -14.6182678661       -5.7343015124       -6.4407196812
 C       -13.3161058157       -5.3425178529       -7.0703422307
 C       -13.0778787471       -3.8059251087       -6.8788732661
 O       -13.7405623141       -3.1968183954       -6.0319932318
 C       -12.1870696777       -2.9889917816       -7.8584825457
 C       -10.6521251781       -3.0325010356       -7.3962850924
 O       -10.1258912673       -4.0801446323       -7.1357187502
 C        -9.7211174305       -1.7948361846       -7.4087600697
 C        -9.7520824315       -0.9012492678       -6.1370198443
 C        -9.8474433047        0.5705821109       -6.5685811354
 O       -10.1572019305        0.7946666290       -7.6916778577
 C        -9.3241404824        1.5890020838       -5.6092403993
 C        -7.8380146313        1.8947265817       -6.0764496234
 O        -6.9327097672        1.3888490494       -5.3863017056
 C        -7.6357224413        2.6957336088       -7.4118581913
 C        -6.3911860695        2.1667446946       -8.2684433031
 C        -5.8608919117        3.4432122882       -9.0082360736
 O        -5.8173965051        4.5498892723       -8.4859406070
 C        -5.5274540542        3.2050149797      -10.5209756586
 C        -4.2714995953        2.3197689828      -10.7367466875
 O        -4.2821598127        1.3812262070      -11.4748013930
 C        -2.9882837688        2.6832124377      -10.0297353641
 C        -1.8856266736        1.6227019733       -9.7944672249
 C        -0.4273042146        2.1379151019       -9.9000104369
 O        -0.0809809423        2.8273081085      -10.8637898455
 C         0.5632969752        1.4980374868       -8.8575188507
 C         2.0995654169        1.9332364457       -9.1962057820
 O         2.9461844294        1.1878892831       -9.6719204778
 C         2.4691596069        3.4058873534       -8.7549673861
 C         3.4992183645        3.9937460525       -9.7684329152
 C         3.0062331785        5.2564666891      -10.4457396683
 O         1.9004800296        5.7452075917      -10.2035173606
 C         3.8557954556        5.9709561928      -11.4893251277
 C         4.2258977953        5.1217234966      -12.6973459979
 O         5.2425534028        4.4532852977      -12.7075421888
 C         3.1928643832        4.8614746828      -13.8159216991
 C         3.4148407040        5.6377187065      -15.1251582503
 C         3.6337622090        4.8617656878      -16.3927696243
 O         3.8801987783        3.6401082124      -16.4931043166
 C         3.5420038993        5.6672628625      -17.8686084736
 C         5.0166497507        5.7613642589      -18.5111393058
 O         5.3993368484        5.0243776180      -19.3959397680
 C         6.0393489042        6.7452565273      -17.8612930416
 C         7.4732301463        6.1068019117      -17.6009974311
 C         7.4076143408        4.9051434507      -16.6595617301
 O         6.5346517382        4.7077474103      -15.7932717086
 C         8.4730431321        3.7842176403      -16.9645758107
 C         9.7547638060        4.3090108902      -16.2681335856
 O         9.6100852045        5.0250718903      -15.2824428912
 C        11.1469646123        3.7586792520      -16.6373804470
 C        11.8454131157        3.2645349561      -15.2658112545
 C        11.6605967745        1.8014735545      -15.0811622400
 O        11.1659760140        0.9878161889      -15.8558106938
 C        12.0880616134        1.2164796460      -13.6093614199
 C        11.1607880634        0.1569409891      -13.1916896387
 O        11.4506369415       -0.9769103643      -12.8976446429
 C         9.6494650466        0.7049194444      -13.2191029549
 C         8.6037485782       -0.4069136525      -13.0588078835
 C         7.2122574501        0.1545972524      -13.3116399240
 O         7.0382757040        1.3587924020      -13.4022809576
 C         5.9799456368       -0.7870992371      -13.3281849192
 C         5.1054893152       -0.1954111327      -14.4645663892
 O         4.7231295422        0.9342547007      -14.4194704092
 C         4.8266957581       -1.0776967940      -15.6470272045
 C         6.4182128415       -2.2147504600      -13.5374830315
 C         5.1657615134       -0.4696111230      -11.9289985203
 C        13.5052327714        0.6343556104      -13.6752025316
 C        12.0615522433        2.3507959534      -12.5460303424
 C         7.9866686190        2.4850234482      -16.2436127714
 C         8.6147898177        3.5561135814      -18.4942283533
 C         2.6086389637        4.6811969931      -18.7030412660
 C         2.9071492750        7.1327021145      -17.6976508402
 C         3.0444572427        7.2049949996      -11.9540379843
 C         5.1958105099        6.5811781401      -10.7627317218
 C         0.3272737111        2.0512948599       -7.4703725412
 C         0.5699248866       -0.0088543100       -8.9818907512
 C        -6.8760363094        2.7103601403      -11.1439786819
 C        -5.0851222667        4.5516746229      -11.1351228745
 C       -10.1504445239        2.9233158151       -5.8427536659
 C        -9.2542887030        1.2433638775       -4.0286244145
 C       -12.2461455265       -3.6499044047       -9.2585826374
 C       -12.7832640375       -1.5711048865       -7.9752594623
 C       -16.7082051638       -7.6504055043       -7.8516366216
 C       -17.2104784209       -7.5635473937       -5.3406965907
 C       -12.5695794476      -13.6251568517       -7.9587714041
 C       -14.7775617645      -15.0244037333       -7.9015155067
 C       -14.3623735919      -15.1451767098       -0.8005322666
 C       -16.0505614944      -16.7852184473       -1.6627581155
 H       -16.6974143586      -13.2093911126        0.2883212982
 H       -17.1292581479      -14.9259104646        0.2012747789
 H       -18.2728183097      -13.7364285512       -0.5006751396
 H       -13.2613792257      -16.7430511024       -3.3216110054
 H       -12.6692561713      -15.1100966740       -3.1662917027
 H       -13.7610902637      -16.3387844702       -5.7669305685
 H       -12.1263894110      -15.7704289998       -5.4416297219
 H       -13.5181457460      -11.2846500471       -8.1348575082
 H       -13.7072079867      -11.2441379312       -6.5280756481
 H       -15.9681940061      -10.2813632471       -8.3987287612
 H       -14.5518087876       -9.3265301200       -8.0558490190
 H       -14.6150855303       -5.2327955105       -5.4423231742
 H       -15.4935696926       -5.3076063291       -6.9564990359
 H       -13.2876892694       -5.6220010329       -8.1119523463
 H       -12.3915875218       -5.9317459773       -6.6770846310
 H        -9.9792688642       -1.1742875051       -8.2898902407
 H        -8.6925459727       -2.0429871324       -7.7388964670
 H        -8.8742440012       -1.0739229514       -5.5708779264
 H       -10.6565615781       -1.2201494791       -5.5370912790
 H        -7.5281365427        3.8154714805       -7.2530966034
 H        -8.4947827784        2.5994539334       -7.9938622529
 H        -6.5268781325        1.4388626462       -9.0342653802
 H        -5.7616302715        1.6996537669       -7.5391444130
 H        -3.2125689099        3.1187705931       -9.0783848160
 H        -2.5317504455        3.5175711299      -10.5272247703
 H        -2.0281800083        1.0028758839      -10.6305798569
 H        -2.0795905074        0.9954504321       -8.8843674515
 H         2.9160118052        3.3456843215       -7.7986478330
 H         1.6285003184        4.0467970303       -8.6949502189
 H         3.7371713116        3.3453670172      -10.6406510154
 H         4.4969940691        4.2916683728       -9.3946667373
 H         2.1723422449        5.0676231568      -13.3959307978
 H         3.2414855449        3.8075432136      -14.0739356986
 H         4.2463143625        6.4481201441      -14.9651981994
 H         2.5013371734        6.2690732077      -15.2403758481
 H         5.7969933676        7.1366733828      -16.8460981636
 H         6.3168764160        7.6314341306      -18.3729130335
 H         8.2334442756        6.7834924390      -17.0471393688
 H         7.9536623921        5.7726019616      -18.5417432903
 H        11.7162238126        4.6017866705      -17.0576864865
 H        10.9779816847        2.8791797264      -17.1942427938
 H        11.3842258689        3.9260651099      -14.4741267605
 H        12.9088436490        3.5020827004      -15.4292843944
 H         9.4113802659        1.4621600563      -13.9966149771
 H         9.5729456315        1.2967067789      -12.3571104258
 H         8.5876870655       -0.8123941914      -12.0076133808
 H         8.8578926707       -1.2804440964      -13.6525190714
 H         5.8037179076       -1.6580179627      -15.7282755329
 H         4.6464379977       -0.6019604066      -16.6013609148
 H         4.0465745435       -1.7956461899      -15.2248111364
 H         5.5440920264       -2.7882615172      -13.5891269440
 H         7.1569675729       -2.5078913733      -12.7879470148
 H         6.8955061006       -2.3143779854      -14.4932321359
 H         4.9269169035        0.6224511967      -11.6320980812
 H         5.6973100097       -0.8720955773      -11.1230905315
 H         4.1337045373       -0.9513752193      -11.8411014759
 H        14.2736262252        1.3617860771      -13.9202703268
 H        13.5941217495       -0.2362370781      -14.2638346165
 H        13.8681465478        0.3482235637      -12.7145181034
 H        12.9035246034        2.9865089956      -12.7514911332
 H        12.3547831447        2.0160388007      -11.5651857163
 H        11.1319533360        2.9002802056      -12.5565356582
 H         8.0140275745        2.7742367363      -15.2671552112
 H         8.7744948207        1.7315379376      -16.4836906304
 H         7.1462988734        2.1196739808      -16.7482919048
 H         9.2273906507        4.2247591595      -19.1545578278
 H         7.6252039969        3.3976706008      -18.8601991090
 H         9.1044498881        2.6520452983      -18.5391300349
 H         1.7622063943        4.6364348061      -18.0986892283
 H         3.0322858177        3.7300142878      -19.0683989850
 H         2.3772100266        5.0849744530      -19.6178274641
 H         2.7381354378        7.5736372238      -18.7061530761
 H         3.5169939327        7.8709936420      -17.1955521594
 H         2.0008096525        7.0935403442      -17.1135880125
 H         2.2749479308        7.3309838379      -11.1545805794
 H         2.5459456213        6.9078359168      -12.8767918909
 H         3.6374235681        8.0632553441      -12.0491205206
 H         5.6263898647        7.2537131469      -11.4684941480
 H         5.9257553719        5.7284775807      -10.6871603630
 H         4.9615678430        7.1797152259       -9.7916391779
 H        -0.2420920947        2.9913764206       -7.4842088211
 H         1.2897851481        2.3352483371       -6.9113915441
 H        -0.3001003824        1.3381274923       -6.7737117783
 H        -0.3987500891       -0.3995902264       -9.3162576564
 H         0.6981154391       -0.4488442530       -8.0087233296
 H         1.2356165150       -0.3592338842       -9.7516888418
 H        -7.4443103502        1.9155719723      -10.6220365629
 H        -6.7700602947        2.3748223545      -12.1689442066
 H        -7.6272714129        3.5693402123      -11.2254533763
 H        -5.2979946926        5.3353148783      -10.4477386098
 H        -5.7307141715        4.6431542928      -12.0435438917
 H        -4.0741780630        4.6103828988      -11.4593907103
 H       -11.1801226743        2.8109448277       -5.4483957263
 H       -10.1696039462        3.1556559913       -6.9336750009
 H        -9.6350260890        3.7392349692       -5.3823309492
 H        -9.0657392422        2.1885810441       -3.5160766571
 H        -8.4365466074        0.5712922351       -3.6305069978
 H       -10.2386286031        1.0813537777       -3.5966734003
 H       -11.8193426155       -3.0555666078       -9.9911389488
 H       -13.3275953988       -3.7243059580       -9.5104623204
 H       -11.7474438135       -4.5840176377       -9.2189878358
 H       -13.7682564594       -1.5889481966       -8.4788869046
 H       -12.2001985599       -0.7720445790       -8.4692800742
 H       -13.1633063560       -1.2382982587       -7.0083705121
 H       -15.8823256385       -7.7918519531       -8.5333038108
 H       -17.0772474938       -6.6247421623       -7.7427691042
 H       -17.5123746993       -8.4356202126       -8.0348067104
 H       -16.7125271251       -7.5091059123       -4.2973766304
 H       -18.0779387412       -8.1593170318       -5.2457951746
 H       -17.6983054539       -6.5630214894       -5.5185217082
 H       -12.1934024446      -12.6745496668       -7.5194149275
 H       -12.7773824697      -13.5393594487       -9.0046251300
 H       -11.8129877128      -14.4375703054       -7.9040477554
 H       -15.7950188725      -14.9834669496       -7.4160160171
 H       -14.3021844041      -16.0179636983       -7.7943796832
 H       -14.9226969922      -14.7403388716       -9.0386767542
 H       -14.1260520261      -14.0810210329       -0.8650926126
 H       -13.5332429977      -15.8533720033       -0.9500490830
 H       -14.6584203479      -15.2662758705        0.1722385944
 H       -16.6728225583      -17.0406596804       -2.4672214950
 H       -16.6290220775      -16.8563009750       -0.7676462317
 H       -15.2445318524      -17.5256045018       -1.6103001767
 Na      -15.8632472257      -12.3198907268       -4.6380964471
 Na        5.4410476668        3.0208072182      -14.5624691750
