232

 C       -24.1905918901       -5.2810873453       -1.3666207454
 C       -22.9359043202       -4.7664857611       -2.0203571326
 O       -21.8717764819       -5.0140756027       -1.4516187956
 C       -23.0571329966       -3.9165001586       -3.3490301572
 C       -21.7186520749       -3.3914004418       -3.8887605353
 O       -20.7564733172       -3.1528302336       -3.1751596631
 C       -21.5330205443       -3.1411992015       -5.3645926308
 C       -20.7424001159       -4.1231193936       -6.2544302879
 C       -19.6160566212       -4.8721620150       -5.4599993543
 O       -19.8092463157       -5.2422846538       -4.3063555902
 C       -18.2087387200       -5.0060728872       -6.1190725897
 C       -17.1515988415       -4.0496405438       -5.3383681948
 O       -16.6368956776       -3.1638475892       -5.8792661447
 C       -16.7718751755       -4.4867484836       -3.8861401500
 C       -16.1779744756       -3.4162037686       -3.0742388734
 C       -16.5563653928       -3.5524157361       -1.6335821838
 O       -17.6022628418       -4.0245759306       -1.1980229720
 C       -15.5501046151       -2.9418804654       -0.5149731772
 C       -14.1240432201       -3.6849797469       -0.5766154091
 O       -13.5817641057       -3.6986001915       -1.6444464404
 C       -13.3045544507       -4.3157212267        0.5435152887
 C       -11.8713015546       -4.5325650649        0.0847487155
 C       -11.6401189156       -5.8660753795       -0.6776568785
 O       -12.5848408685       -6.5511382637       -0.9732446980
 C       -10.1403322041       -6.2841769375       -1.0402557670
 C        -9.1622196147       -5.0773460164       -1.0185925759
 O        -9.0308390510       -4.5275943739        0.0423120310
 C        -8.5224552396       -4.5957485300       -2.3053597216
 C        -7.2614650434       -3.7350438854       -2.2156111224
 C        -6.9736864768       -3.0062152608       -3.5379231476
 O        -7.5866157060       -3.2162770846       -4.5283617747
 C        -5.9520646576       -1.8094286466       -3.5295312283
 C        -4.7133530784       -2.5938639421       -4.0737641386
 O        -4.3834342307       -3.6385879925       -3.5491874668
 C        -3.8312315058       -2.1105117573       -5.2766760033
 C        -2.5232303580       -2.9053672775       -5.3330487842
 C        -1.2893755610       -2.0255911377       -5.4563831435
 O        -1.3705161329       -0.8261898862       -5.1618452488
 C         0.0229893962       -2.6188559097       -5.8338004111
 C        -0.0492572029       -2.5816696608       -7.4568853100
 O        -1.0225920517       -3.0249840599       -8.0030672833
 C         1.0589669468       -2.0723852014       -8.5064282341
 C         1.1756526324       -3.1870493315       -9.5610128082
 C         2.1980263423       -2.8224054467      -10.6484501037
 O         3.2821092555       -2.3298306993      -10.3723453353
 C         1.6984049004       -2.7390810789      -12.1506745044
 C         2.8350524932       -2.2230718617      -13.1733764458
 O         2.6104253917       -1.2363538910      -13.8109943395
 C         4.1764886934       -2.8168173827      -13.3634500702
 C         4.4490313168       -2.7739839493      -14.8610020649
 C         5.8297133828       -3.1614136511      -15.2657253384
 O         6.6375978957       -3.5036698809      -14.4882826147
 C         6.2263854189       -3.0947646018      -16.8723344423
 C         7.1121608768       -1.8201903696      -16.8106671248
 O         6.5272282564       -0.7943187599      -17.0588718175
 C         8.3513612720       -1.8949622943      -16.0511917724
 C         8.4291473355       -1.0365083687      -14.7228304798
 C         9.0676974723        0.4237383746      -14.6675663189
 O         9.4928394632        0.9297300432      -15.6703533044
 C         9.0003162945        1.4083257264      -13.3761099210
 C         7.5561133485        1.8220337311      -13.4495329329
 O         6.5869307461        1.1482746439      -13.0262490356
 C         7.2194592836        3.2040090987      -14.2593953503
 C         5.6530272615        3.3295622029      -14.3244829514
 C         5.2364826431        2.7255173389      -15.6882987205
 O         5.9238490812        1.9182109728      -16.2973805926
 C         3.7264862725        3.1345426656      -16.2839661652
 C         3.9090381495        3.6535431550      -17.6556537465
 O         3.8698362203        4.8212710239      -17.9072753070
 C         4.0819391369        2.6816908662      -18.8048961531
 C         4.3894904331        3.3742562041      -20.1080547300
 C         5.1669109300        2.5503199688      -21.1133423183
 O         5.6321595633        1.4941504457      -20.8271171185
 C         5.3460238315        3.1048410651      -22.5633938395
 C         6.8350923046        3.3760223559      -22.8470131614
 O         7.3677927825        2.9156875422      -23.8124465832
 C         7.4551649860        4.3332248392      -21.8295263614
 C         8.8313727122        3.7666376619      -21.3240258356
 C         8.7909677032        2.7309080359      -20.2569395763
 O         8.0170990615        2.8249115222      -19.2696780924
 C        10.0270524477        1.7024777272      -20.1890008306
 C         9.3271142476        0.3610747548      -20.2311451485
 O         8.8489116036       -0.2043397516      -19.2526835534
 C         8.7589511393       -0.0350247916      -21.6384004038
 C        10.9301143977        1.7288266522      -21.4463730694
 C        10.8422413078        1.8296014846      -18.8432197275
 C         4.6539840197        2.0289317908      -23.5009561496
 C         4.4669698151        4.4741276668      -22.7551776009
 C         2.8448690126        1.8103773701      -16.0770329997
 C         3.1046664030        4.1726103758      -15.3413961807
 C         9.3084308235        0.4714595409      -12.1368621851
 C         9.9596297595        2.6190915132      -13.2312060655
 C         7.0891253733       -4.3095824385      -17.3722178716
 C         5.0517946754       -2.8176276720      -17.9333452054
 C         1.2668212652       -4.1511851950      -12.6313332096
 C         0.5111031658       -1.7677566960      -12.2336830966
 C         1.1633976746       -1.7949155995       -5.2463326311
 C         0.2409685343       -4.1221538928       -5.3890881184
 C        -6.3953197119       -0.5214286138       -4.2799661747
 C        -5.4693293326       -1.4226408172       -2.1522762618
 C        -9.6114579867       -7.3015407023        0.0701290952
 C       -10.3275224147       -6.8981633345       -2.4039595608
 C       -15.3328865996       -1.5255946022       -0.9118454332
 C       -16.1997357255       -3.1199572160        0.8989833666
 C       -17.7304154113       -6.5154833339       -6.0929595841
 C       -18.1926845765       -4.4624488807       -7.5375629710
 C       -23.8535248573       -4.7289616346       -4.3806484651
 C       -23.9242252959       -2.7828230788       -2.9103081674
 H       -24.1789669857       -5.2210817800       -0.2659201741
 H       -24.3028345496       -6.2628140423       -1.6241171144
 H       -25.0922600452       -4.8789908497       -1.7921022805
 H       -21.0568990766       -2.1693182360       -5.2305717396
 H       -22.4694625609       -2.7900339685       -5.9283177949
 H       -20.2338340579       -3.5611785526       -7.0332022232
 H       -21.3695335560       -4.8755244346       -6.7241765236
 H       -16.0780518722       -5.3277510680       -3.9960416633
 H       -17.5682848941       -4.9749180970       -3.3547006154
 H       -16.6606693594       -2.4859270360       -3.4501674878
 H       -15.1648818263       -3.3903911416       -3.2046348097
 H       -13.7764384115       -5.2754686579        0.8912356212
 H       -13.3588107673       -3.7237906462        1.4538918045
 H       -11.2381591724       -4.5220728370        1.0010480604
 H       -11.4096522127       -3.6905156312       -0.4203665093
 H        -9.2929681045       -4.0151772347       -2.8217048985
 H        -8.2694046160       -5.4136260868       -3.0270964453
 H        -6.3375857227       -4.2331018810       -1.8127857980
 H        -7.3911856193       -2.9583675366       -1.3639556587
 H        -3.6525805663       -1.0212299814       -4.9776713865
 H        -4.4967687905       -2.0788397198       -6.1815018642
 H        -2.6027777567       -3.6537704253       -6.0617324948
 H        -2.3428417895       -3.3611392853       -4.3238285231
 H         2.0528631302       -1.8855050203       -8.0593305876
 H         0.6936099365       -1.0994617253       -8.8678733327
 H         0.1723197645       -3.4377639501       -9.9665094449
 H         1.5426421521       -3.9876490707       -9.0396208616
 H         4.2420939049       -3.8063553650      -13.0117574138
 H         4.8880800683       -2.2259608105      -12.7238680854
 H         4.1678300338       -1.7860271203      -15.1187291928
 H         3.8560605322       -3.5855911208      -15.2687790710
 H         8.9734177530       -1.4973625769      -16.8305321422
 H         8.5832882100       -2.9170709224      -15.6944547613
 H         9.0502739361       -1.7374588130      -14.1801942845
 H         7.3732459368       -0.9876592484      -14.2919778474
 H         7.4954517383        2.9911499032      -15.2569731395
 H         7.7591132124        4.0377408211      -13.8857417617
 H         5.3902634359        4.4039321462      -14.1747068245
 H         5.0869823125        2.8904463792      -13.5025996103
 H         3.1802511297        2.1694247760      -18.7842790287
 H         4.7746560509        1.8909679607      -18.6086894392
 H         5.0262832002        4.2059933159      -19.8809079198
 H         3.4791395414        3.5027267680      -20.5736093382
 H         6.7094219239        4.5246980141      -21.0917445437
 H         7.6943089092        5.3455385867      -22.2416582763
 H         9.5240551332        4.5358981626      -20.9520146472
 H         9.2321269516        3.3222038975      -22.1763505058
 H         9.4411154412       -0.6120968026      -22.3504834311
 H         8.4102378320        0.8360949195      -22.0849592545
 H         7.8941518075       -0.6158384383      -21.4638737439
 H        11.5151139743        0.9181012118      -21.3382455808
 H        11.5536494716        2.6533354730      -21.3498313039
 H        10.2075614596        1.7706043491      -22.3715273951
 H        11.6495552347        1.1561802188      -19.1459218597
 H        10.2982499322        1.5370387396      -17.9564079585
 H        11.2850206955        2.7902730472      -18.5820848007
 H         5.1768951234        1.0611041622      -23.3517820851
 H         4.8182497266        2.3513983820      -24.4826225004
 H         3.6221739722        1.8856347955      -23.3102974881
 H         4.7800120643        4.9775951434      -23.6078822504
 H         4.6790132397        5.1392829368      -21.9202003728
 H         3.4258624250        4.3203673499      -22.6957515504
 H         3.3624311128        0.9388286964      -16.5690324051
 H         1.8031545462        1.9679539199      -16.2357718826
 H         2.9570673350        1.6438640231      -15.0050260576
 H         3.7989759741        4.9494487076      -15.0766356371
 H         2.5661149350        3.7753641768      -14.5149992737
 H         2.3520186114        4.7042753969      -15.9661825758
 H         9.2960381636        1.0619734748      -11.2283493229
 H        10.2547396893        0.0411320463      -12.2801716744
 H         8.5544098890       -0.2948803859      -11.9532845537
 H        10.9751872283        2.1946210666      -13.3686036674
 H         9.9528575321        3.1094496605      -12.2853757383
 H         9.8977764473        3.4414468337      -13.9278443221
 H         6.6484030757       -5.3261644265      -17.3833698381
 H         7.9816682033       -4.3336786272      -16.7237532224
 H         7.4411620410       -4.1411269555      -18.3461102420
 H         4.3660709283       -3.6998135321      -17.9577298186
 H         5.4517053586       -2.7795432030      -18.9547149049
 H         4.4349082343       -1.8604561948      -17.6747572054
 H         0.4487141395       -4.5758127016      -11.9945151597
 H         2.0726336292       -4.9187279154      -12.7312222069
 H         0.8129978652       -4.0220073998      -13.6106020671
 H         0.8580299657       -0.8341611911      -11.7958605281
 H        -0.2599575775       -2.2273107780      -11.6152680519
 H         0.0598723611       -1.6057094236      -13.2379708634
 H         0.9263098441       -1.3669660635       -4.3224887661
 H         1.5662144653       -1.0491399421       -5.9598321348
 H         2.0764629158       -2.3581637483       -5.0370137566
 H        -0.5501763492       -4.8408895123       -5.7322886033
 H         0.3203179239       -4.1898516927       -4.3321919135
 H         1.1795659629       -4.5590578586       -5.7508812982
 H        -7.0284770564       -0.7419302632       -5.1496241899
 H        -5.5417020543        0.0830145984       -4.5412792376
 H        -6.9951373427        0.0204870995       -3.6351987906
 H        -6.2202990497       -0.8649309875       -1.6234509225
 H        -4.5898097518       -0.7657513514       -2.0949064995
 H        -5.4034279219       -2.2599357898       -1.4372206149
 H       -10.1250850610       -8.2783937987       -0.1911236418
 H       -10.0257374699       -7.1803099056        1.0901710246
 H        -8.5864025765       -7.5055416362        0.0629645866
 H       -11.0999109122       -7.6095158589       -2.3450701670
 H        -9.4380835308       -7.3981365832       -2.8317265958
 H       -10.6386698686       -6.1886579621       -3.2282484361
 H       -16.3216424437       -0.9393967672       -0.8948304183
 H       -14.9122607849       -1.4869752026       -1.9388950542
 H       -14.7485686558       -1.1297834672       -0.0634767457
 H       -15.4946122421       -2.8523157596        1.6872101491
 H       -16.5791027788       -4.1228796085        1.1149105770
 H       -17.1342166241       -2.5881565227        1.0277571232
 H       -17.1804676945       -6.8150377565       -5.2775305392
 H       -17.1148635850       -6.6074744426       -7.0369846370
 H       -18.6067352926       -7.1844277245       -6.2471620717
 H       -18.3410164648       -3.3446439919       -7.4909227676
 H       -19.0452378837       -4.8826731914       -8.0578700654
 H       -17.1712345156       -4.6301275011       -7.9090560200
 H       -23.1912985582       -5.3686625760       -4.7729326262
 H       -24.3193500699       -4.0274777085       -5.0714508558
 H       -24.6697307405       -5.2716761530       -3.9185460073
 H       -24.9762923438       -2.9490414491       -2.7320078383
 H       -23.9768632225       -2.1597203485       -3.7573144716
 H       -23.5261741151       -2.2648040936       -2.0791104499
 Na      -19.6133208811       -4.8479064166       -1.9063194372
 Na        8.0499809577        1.2176739556      -17.4506186448
