232

 C       -23.6183677771       -4.8971331325       -0.8052188448
 C       -22.6434460194       -4.7931370677       -1.9582894396
 O       -21.5693767972       -5.3749052931       -1.7605656215
 C       -22.8952904912       -3.9190795690       -3.3021608056
 C       -21.5041218879       -3.1882727890       -3.5892887792
 O       -20.7681797573       -2.8516266454       -2.6392873744
 C       -21.0265055117       -2.7824330323       -5.0493442395
 C       -20.4493060340       -3.8687809684       -5.9545845596
 C       -19.6589117424       -4.9711475644       -5.3454292178
 O       -19.9336061455       -5.4504521284       -4.2478592780
 C       -18.3000227066       -5.2720598500       -6.1021333744
 C       -17.3807161822       -4.0910601140       -5.4297424917
 O       -17.3253328350       -3.0135988887       -5.8977379674
 C       -16.6282497158       -4.5503329157       -4.1239063592
 C       -16.7529552425       -3.3142183164       -3.0811513384
 C       -16.6655145047       -3.6504394257       -1.6145258020
 O       -17.6646495031       -4.2084036123       -1.1397477180
 C       -15.6853151659       -3.1262404328       -0.6626535254
 C       -14.1406385905       -3.6387751450       -0.8760246755
 O       -13.6881069942       -3.6603015643       -2.0025346404
 C       -13.3193016722       -3.9921384358        0.3251524846
 C       -11.8744821272       -4.1680677506       -0.0492715926
 C       -11.5833710488       -5.4614393522       -0.8115081716
 O       -12.5512509465       -6.0226075949       -1.2680925918
 C       -10.0774764443       -6.0504033729       -0.9818676557
 C        -9.1069427378       -4.8801794017       -1.1177857216
 O        -9.2109255009       -3.9253362243       -0.3359533586
 C        -8.1607562696       -4.9739756527       -2.2143619559
 C        -6.9963513287       -3.9036535338       -2.1619782684
 C        -7.1427384611       -2.9179031929       -3.3459641896
 O        -8.0559347728       -2.9754072618       -4.1191047912
 C        -5.9739688692       -1.7461495048       -3.5225733631
 C        -4.6130255549       -2.3056058337       -3.9946427688
 O        -4.3033989301       -3.4130314510       -3.6021429225
 C        -3.6157999231       -1.4641721601       -4.8712115959
 C        -2.6039427418       -2.2722034907       -5.7261727435
 C        -1.1882611633       -1.6365000244       -5.7245984173
 O        -1.0549033676       -0.4630850568       -5.4205581568
 C         0.0054037771       -2.4615691549       -6.2480066266
 C        -0.0648763630       -2.4855305776       -7.8414532768
 O        -1.1257151722       -2.6253221501       -8.3619863287
 C         1.2041549214       -2.3716631556       -8.7143793854
 C         1.1866494319       -3.2893590438       -9.8821293888
 C         2.0624106247       -2.7411467402      -11.0866690260
 O         3.1886722757       -2.4064253016      -10.9258930827
 C         1.4883743730       -2.6471707953      -12.5536189604
 C         2.6758306899       -2.2595214715      -13.4931653143
 O         2.5439688119       -1.1571515543      -14.0041412262
 C         4.0095346907       -3.0552063004      -13.6535917521
 C         4.3422737238       -3.2125889997      -15.0940036718
 C         5.8847533493       -3.4711503013      -15.3119910596
 O         6.6763661131       -3.6702829821      -14.4551563534
 C         6.4186866730       -3.3221640998      -16.7632473521
 C         7.3063058681       -2.0866122195      -16.8107943578
 O         6.9189530494       -1.0977847993      -17.4768346604
 C         8.7177055380       -2.0776420574      -16.0774145115
 C         8.6920030332       -1.2806008558      -14.7594997729
 C         8.9166978415        0.2335177583      -14.7652770240
 O         9.1501756750        0.9599861657      -15.7266386335
 C         8.9122968756        1.0907266319      -13.4228703402
 C         7.6130986172        2.0019652383      -13.4687138361
 O         6.6383572123        1.6476318609      -12.8693453550
 C         7.5825764951        3.1632484656      -14.6098230432
 C         6.1338745367        3.7083850661      -14.7724586460
 C         5.3224386871        2.8049786168      -15.6597899236
 O         5.9798313892        2.1352946730      -16.4493888791
 C         3.8120875586        2.9237866639      -15.8229009607
 C         3.5699296986        3.5187310838      -17.3489368215
 O         3.2329405436        4.6438872738      -17.3835041606
 C         3.9106051111        2.5289531779      -18.4864057772
 C         3.6991096162        3.1476594252      -19.9515789693
 C         4.5348793522        2.2128724309      -20.8635726186
 O         4.9710341978        1.1422660647      -20.4870946111
 C         5.0343449728        2.7611988743      -22.3302952109
 C         6.6124235811        3.0956428238      -22.3173542631
 O         7.2990439327        2.6462612548      -23.1675543666
 C         7.0721944768        4.2682931576      -21.4279812676
 C         8.6073904039        4.1676448817      -20.9887488690
 C         8.7847434711        2.8622009411      -20.0950200641
 O         7.9929298094        2.5910477329      -19.2250144831
 C        10.2116254876        1.9485870990      -20.1440178969
 C         9.6205405543        0.4887052318      -19.8557644818
 O         9.5386374009        0.0228875205      -18.6573389185
 C         9.0863397104       -0.2559282959      -21.0259079673
 C        10.9321297624        2.0614213271      -21.4837999746
 C        11.1978347763        2.3865119563      -18.9213159109
 C         4.8652672113        1.4247751792      -23.2982868223
 C         4.2954334372        4.0240387013      -22.9353436769
 C         3.3842950357        1.4130986401      -15.6882194605
 C         3.1457649406        3.9002422577      -14.7726822203
 C         8.8769416341        0.2276390591      -12.2287799732
 C        10.1831710343        2.0462418166      -13.5255290622
 C         7.3640056532       -4.5708472557      -17.0341445370
 C         5.2898409643       -3.3087528100      -17.8226211648
 C         0.8307389650       -3.9802820756      -13.1316389597
 C         0.4377681083       -1.5457329705      -12.4080197396
 C         1.3520706986       -1.7200215352       -5.7575210599
 C         0.0225338955       -4.0083916748       -5.9822482402
 C        -6.5646439728       -0.6516319559       -4.4260969642
 C        -5.5694854324       -1.1032513082       -2.1956578436
 C        -9.8118973938       -6.7728776205        0.4287998911
 C        -9.9929737680       -7.1471815902       -2.0551038928
 C       -15.5756532118       -1.5563204090       -0.7000063156
 C       -16.0752015016       -3.5808431812        0.8284348531
 C       -17.8149177643       -6.6986990346       -5.8070839075
 C       -18.3648383486       -5.1324787669       -7.7215855577
 C       -23.4319118765       -4.7974988966       -4.4152641575
 C       -23.8293914594       -2.8002338206       -2.9710431301
 H       -23.8165255918       -5.8607587631       -0.3904688776
 H       -24.5424863806       -4.4137019553       -0.9676585224
 H       -23.1569754076       -4.3403568531       -0.0273868854
 H       -20.3689642254       -1.8494926948       -4.9165769205
 H       -21.8437294245       -2.3202640987       -5.6371598127
 H       -19.8526023362       -3.4084381023       -6.7656547571
 H       -21.2869261282       -4.4328112322       -6.5077360978
 H       -15.5805690789       -4.7600965004       -4.3873334265
 H       -16.9448360566       -5.4783677554       -3.6587811360
 H       -17.6838655628       -2.8870477784       -3.1434111871
 H       -16.0157598032       -2.5276411722       -3.4289315702
 H       -13.7428296377       -4.8466001084        0.8170625891
 H       -13.4183913711       -3.1577486922        1.0629221242
 H       -11.2806452021       -3.9394346977        0.8017741781
 H       -11.6954381969       -3.2795366221       -0.7270527186
 H        -8.6496366507       -4.8624348626       -3.2074860199
 H        -7.6996985263       -5.9252899450       -2.3331509681
 H        -6.0336936643       -4.3988275711       -2.0837540760
 H        -7.1460279207       -3.2994020850       -1.2927554172
 H        -2.9712684629       -0.9023915472       -4.1930643555
 H        -4.2119103848       -0.7183246443       -5.3322205013
 H        -2.9786551802       -2.4413930425       -6.7947393776
 H        -2.4342980382       -3.3017970819       -5.2820545386
 H         2.0120220502       -2.5060921284       -8.0933312241
 H         1.2747471044       -1.3461213275       -9.0559173716
 H         0.1302719933       -3.6033028889      -10.1559581542
 H         1.5600775508       -4.2800377917       -9.5875594581
 H         3.9071211238       -4.1059860257      -13.3012661658
 H         4.8533488405       -2.6286579150      -13.0977830857
 H         4.0660231332       -2.2819130109      -15.6155989447
 H         3.7197926066       -3.9223271348      -15.6218998093
 H         9.5007652437       -1.5687470732      -16.7351017615
 H         8.8763591734       -3.1316876496      -15.9076620110
 H         9.5059894012       -1.5442828611      -14.0585277363
 H         7.8267636651       -1.6074641992      -14.2721285800
 H         7.7297290555        2.5799561806      -15.5815510796
 H         8.3569885155        3.9102688575      -14.3825391416
 H         6.0091822365        4.7356302467      -15.2516707637
 H         5.7425484291        4.0321181581      -13.7045704015
 H         3.2712287639        1.6782441238      -18.3552590989
 H         4.8658422786        2.1364874957      -18.3369386946
 H         4.1101610526        4.1915182578      -19.9450306790
 H         2.6258096190        3.2081639669      -20.3657387445
 H         6.3612089099        4.3392472547      -20.5817027053
 H         6.9824306938        5.1929597000      -21.9426473453
 H         8.9378530327        5.0541526203      -20.4447433959
 H         9.2427639659        4.1546174245      -21.9142623486
 H         9.9923627866       -0.5959057380      -21.5220263564
 H         8.7657993814        0.4618008539      -21.7255100496
 H         8.4453178413       -1.0927096850      -20.8124999450
 H        11.9438899588        2.2000234738      -21.2934952357
 H        10.5505175546        2.8601406422      -22.0336035538
 H        10.8348872418        1.0991512235      -22.1547742163
 H        12.1772691123        1.8906570546      -18.9733844466
 H        10.7145900687        2.0536259062      -18.0198009281
 H        11.4448836693        3.4458891310      -19.0350273592
 H         5.2500738385        0.5584193277      -22.7767106288
 H         5.3618398821        1.4497518010      -24.2894656460
 H         3.8470040182        1.3161175323      -23.3976061522
 H         4.7360867805        4.3484070717      -23.8990839310
 H         4.2726619596        4.8324596198      -22.2654498412
 H         3.3391807144        3.7033874908      -23.1739022018
 H         4.0057482079        0.9036473538      -16.3880105132
 H         2.3484168533        1.3160222564      -16.1249351716
 H         3.5711691454        1.0041314758      -14.6904750641
 H         3.7362055666        4.8338889545      -14.7785514322
 H         3.1968242997        3.4761156206      -13.7730792171
 H         2.1180046159        4.1169933520      -14.9078938137
 H         8.9733787736        0.7123049290      -11.2959760363
 H         9.7779528419       -0.4557067083      -12.1672194961
 H         7.9956501935       -0.3295390480      -12.2186655843
 H        11.1482194427        1.5883669542      -13.5251812913
 H        10.2400468818        2.7715927861      -12.7274030513
 H        10.2793443139        2.6922760826      -14.4775502905
 H         6.7110128223       -5.3086899478      -17.3359113029
 H         7.7703265149       -4.9762704613      -16.1686210769
 H         8.0805259917       -4.4769947930      -17.8196743982
 H         4.8398778913       -4.3236730576      -17.8153474823
 H         5.7440198657       -2.9097799912      -18.7186688240
 H         4.5597599374       -2.4992674438      -17.6624832376
 H        -0.0143919399       -4.2606393979      -12.4937674581
 H         1.4652625858       -4.8475274723      -13.2063740780
 H         0.4613037700       -3.7944826906      -14.1910799631
 H         0.9621608216       -0.5801063719      -12.2326079515
 H        -0.1827406921       -1.6039975818      -11.5110029399
 H        -0.1112590163       -1.4907116866      -13.3429690600
 H         1.8128645761       -2.2409533276       -4.9178358068
 H         1.0921461426       -0.8002305086       -5.2281046585
 H         2.1854137829       -1.6792234565       -6.5136859523
 H        -0.6108369563       -4.5149929269       -6.7478229117
 H        -0.3106859945       -4.4353723677       -5.0372397892
 H         1.0362100825       -4.3990305340       -6.1205453145
 H        -6.6202840456       -1.0330249775       -5.4127499655
 H        -6.0100673757        0.2232552914       -4.4502521367
 H        -7.5748395558       -0.3573538457       -4.0814760744
 H        -6.2376654251       -0.3868888079       -1.8298436948
 H        -4.6701507019       -0.5198403049       -2.3305204212
 H        -5.1450271674       -1.7010770110       -1.4359129574
 H       -10.1762496110       -7.8054711103        0.5214222729
 H       -10.1234416114       -6.0409351450        1.2233475445
 H        -8.7386138584       -6.9293831080        0.5662220458
 H       -10.7177244366       -7.9970442678       -1.8757485913
 H        -9.0145237670       -7.6500433616       -1.9470963270
 H       -10.0551662560       -6.9010845270       -3.0947460703
 H       -16.5059498427       -1.0160930119       -0.6201624664
 H       -15.1001271665       -1.3278376770       -1.7391201699
 H       -14.8095926688       -1.2762762091        0.0839744020
 H       -15.8706532731       -2.8972305560        1.6985119559
 H       -15.5871062808       -4.5738881486        1.1012682419
 H       -17.2030464643       -3.6781119914        0.9607430824
 H       -18.3679627373       -7.3761262809       -6.5206978594
 H       -18.1539845716       -6.9925167542       -4.8266069814
 H       -16.7524952354       -6.8324238578       -5.9318944894
 H       -18.1847775018       -4.1360119468       -7.9246248086
 H       -19.3879838489       -5.4160289518       -8.0811756573
 H       -17.4710854943       -5.7207692504       -8.1041645457
 H       -23.0119876676       -5.7584517156       -4.3438553780
 H       -23.0610389015       -4.3604325315       -5.3788230128
 H       -24.5096792152       -4.8392451680       -4.3404183516
 H       -24.8201375543       -3.2155243906       -2.8443370820
 H       -23.7769652085       -2.0319127499       -3.6778089953
 H       -23.6216611061       -2.3206543421       -2.1036252157
 Na      -19.5171144369       -4.5412652202       -2.1465056478
 Na        7.7149366888        1.1477328538      -17.5650538064
