232

 C       -24.0002071696       -4.7308714488       -1.0705183766
 C       -22.6452212430       -4.5538968726       -1.7276042372
 O       -21.6181896399       -4.9931244863       -1.1803948922
 C       -22.6772335502       -3.9354428513       -3.1495200257
 C       -21.2478103269       -3.4769846338       -3.5778416825
 O       -20.3198095814       -3.3537327425       -2.7936402760
 C       -21.0596784161       -2.7772091422       -4.9195156890
 C       -20.5930133300       -3.7270575383       -6.1142571769
 C       -19.8094363477       -4.9160971555       -5.5161099970
 O       -20.2764642337       -5.5463821667       -4.5823144887
 C       -18.3189746888       -5.1712151963       -6.0256107719
 C       -17.4731991256       -4.0059198619       -5.3085826112
 O       -17.4961522371       -2.8880196153       -5.7807057108
 C       -16.6327242948       -4.3072381304       -3.9506648337
 C       -16.8635350358       -3.1418403297       -2.9441429860
 C       -16.7206152896       -3.6698130745       -1.4955144067
 O       -17.3409045359       -4.6458836127       -0.9926059554
 C       -15.7230082653       -3.0882934189       -0.4927287563
 C       -14.1825026710       -3.3452371963       -1.0566984422
 O       -13.9587983721       -3.0145938706       -2.2285508836
 C       -13.1272024610       -3.7583223296       -0.1027344347
 C       -11.6881295820       -3.9143548647       -0.7248268747
 C       -11.3052205074       -5.2904913142       -1.0839498747
 O       -12.0838801263       -6.1032163892       -1.5653690384
 C        -9.8153080867       -5.7179147414       -0.8612221514
 C        -8.8347072060       -4.6690403134       -1.2903106256
 O        -8.8297461212       -3.5563100234       -0.7326928808
 C        -7.7774555056       -5.0255873531       -2.3089849093
 C        -6.8139911274       -3.8509347980       -2.4060706947
 C        -7.1044613570       -2.7548122599       -3.4023540731
 O        -8.1364778212       -2.7172041835       -4.0583952012
 C        -5.9903465937       -1.5902364728       -3.5687205340
 C        -4.6737908686       -2.2506643500       -4.1146320458
 O        -4.3181212623       -3.3323915671       -3.6868230610
 C        -3.7463823791       -1.4969778780       -5.1331565516
 C        -2.4735553968       -2.3589717673       -5.4735781364
 C        -1.2445685093       -1.4944734603       -5.8605970387
 O        -1.1665451093       -0.3306599393       -5.6097537112
 C         0.0055336090       -2.2878946774       -6.5183698549
 C        -0.1131627145       -2.3444136699       -8.0652090947
 O        -1.2133769416       -2.0842741250       -8.5223118502
 C         0.9961017140       -2.9129794933       -8.9661609870
 C         0.8240592242       -2.5212315274      -10.4563311249
 C         1.9374816936       -2.7286174123      -11.3651336169
 O         3.0177721252       -3.1369558724      -11.0657674553
 C         1.3559153185       -2.3866053002      -12.8554710398
 C         2.4567806102       -2.2347571335      -13.9221853846
 O         2.2886589643       -1.3175051629      -14.7646952680
 C         3.5947470872       -3.2008813749      -14.0047005131
 C         4.3802422243       -3.1820286494      -15.3626766018
 C         5.8249897580       -3.6073152075      -15.2080760808
 O         6.4058761352       -3.7484556551      -14.0910676767
 C         6.6634761084       -3.6608876237      -16.6164858823
 C         7.3265434499       -2.1844446809      -16.8726997019
 O         6.8456139796       -1.3063338813      -17.5522895335
 C         8.6613769893       -1.8666578213      -16.1212885393
 C         8.3461718602       -1.1715315893      -14.7684281893
 C         8.8169366149        0.2628787114      -14.7034163598
 O         9.2780231473        0.8399944511      -15.7150113743
 C         8.8245025711        1.0446732239      -13.2669607601
 C         7.6075146115        1.9462264245      -13.6338007544
 O         6.5007420850        1.6152832683      -13.2872772573
 C         7.8973048982        3.1372803895      -14.6153691655
 C         6.4981559180        3.7631100904      -15.0291404834
 C         5.6091754796        2.7306329003      -15.6811688070
 O         6.1158761585        1.9463666611      -16.5284948472
 C         4.0994706797        2.7159135704      -15.5454166213
 C         3.6380017736        3.1958103647      -17.0826540833
 O         3.2861380692        4.2848377562      -17.3826657581
 C         3.6482940541        2.0706490371      -18.0932793923
 C         3.9522389248        2.7141157542      -19.4525663290
 C         4.3590238989        1.8890987959      -20.6535002243
 O         4.5846886884        0.7235996565      -20.5139763349
 C         4.7862449255        2.5344981199      -22.0977453811
 C         6.3389994514        2.8088991429      -21.7941155341
 O         7.0172421911        1.7901861914      -21.6955434852
 C         6.7809863871        4.2191036050      -21.2766553023
 C         8.2346868732        4.2340957983      -20.8710053432
 C         8.6178106302        2.8927889044      -20.1318538885
 O         7.7958195388        2.5102618187      -19.3026551230
 C        10.0297313778        2.2455851800      -20.2350043153
 C         9.8397737241        0.6959817424      -19.8974365696
 O        10.0609656890        0.3709726859      -18.7865088177
 C         9.6963862899       -0.2626393373      -21.1290738549
 C        10.7054273860        2.5573321233      -21.5630431552
 C        10.8683163481        2.8760709506      -19.0586319544
 C         4.6871607690        1.4569993370      -23.2213189087
 C         4.0802103865        3.8187539019      -22.5023028019
 C         3.6962162527        1.2328243182      -15.1652753777
 C         3.5134922880        3.7166338528      -14.4701293452
 C         8.4056504456        0.1846969738      -12.0530696994
 C        10.1804389699        1.8605736159      -13.0447652354
 C         7.7601493197       -4.7782029252      -16.4658038290
 C         5.9480519999       -3.8941778480      -17.9383727319
 C         0.6202000498       -3.7386977270      -13.1814331186
 C         0.2704226663       -1.3148082020      -13.0117351512
 C         1.2757578468       -1.5499323034       -5.9343778459
 C         0.1064169457       -3.7819683457       -6.0302819484
 C        -6.6762428886       -0.5784620455       -4.4789603885
 C        -5.4948008509       -1.0082902569       -2.2233626732
 C        -9.7767960040       -6.0771916482        0.6557987774
 C        -9.7383644592       -7.0315682041       -1.5656696298
 C       -15.8533487014       -1.4899556246       -0.7028218648
 C       -16.0356278300       -3.3322050297        0.9590842964
 C       -17.9436700264       -6.6004299905       -5.5655368798
 C       -18.2524699605       -5.0775093890       -7.6212233022
 C       -23.2544855814       -4.9141926965       -4.1633852853
 C       -23.4710760806       -2.5888013215       -2.9934290321
 H       -24.0824216647       -4.9244287719       -0.0383841970
 H       -24.3478268133       -5.6839043127       -1.5585495903
 H       -24.7368809308       -3.9679461123       -1.2349098520
 H       -20.3340011047       -1.9926809146       -4.9583122172
 H       -22.0714777236       -2.4266084308       -5.1489479718
 H       -19.9644044632       -3.0746105083       -6.7884853815
 H       -21.4807060088       -3.9683110828       -6.7286022746
 H       -15.5662908252       -4.2563838959       -4.1115714785
 H       -16.9498926783       -5.2618727798       -3.5009287559
 H       -17.9606326699       -2.7583864010       -3.0053374245
 H       -16.3163033783       -2.2040223482       -3.1707653124
 H       -13.4792218572       -4.7119479999        0.3403162141
 H       -13.1489566852       -2.9888096626        0.6470875440
 H       -10.9758485148       -3.5104223862        0.0489569773
 H       -11.7157942923       -3.3742074496       -1.6272735326
 H        -8.1564481884       -5.2543832586       -3.2644195615
 H        -7.2500251977       -5.9430871540       -2.0116669565
 H        -5.8185911253       -4.0991282806       -2.5963947231
 H        -6.8406169716       -3.4462837373       -1.4258171493
 H        -3.4830213627       -0.5814701899       -4.6449482240
 H        -4.3133993325       -1.2978788292       -6.0408323951
 H        -2.6128825942       -2.9986770337       -6.3755124644
 H        -2.3049765546       -3.1306898147       -4.7062108992
 H         1.0045828239       -4.0391518298       -8.8597518235
 H         1.9823657486       -2.6354804407       -8.6434256349
 H         0.5635254812       -1.4833914766      -10.5359163054
 H        -0.1359774007       -3.0223681030      -10.8717526323
 H         3.1284314707       -4.1744329798      -13.7933014571
 H         4.2997141167       -3.0117321497      -13.1971060250
 H         4.2358581991       -2.2316794378      -15.9006005417
 H         3.8684057494       -3.6588688204      -16.2743170508
 H         9.2161642533       -1.2094931733      -16.7510082207
 H         9.3812162108       -2.6825880260      -15.9301266597
 H         8.5106141498       -1.9027264381      -13.9669462157
 H         7.2439305117       -1.1231526594      -14.5811412991
 H         8.5359785181        2.7691015347      -15.4536692090
 H         8.4382477530        3.9913168832      -14.0239212913
 H         6.5545767745        4.6533146887      -15.6235478889
 H         6.1554141200        4.1826102292      -14.1244345799
 H         2.4947170644        1.9029500220      -18.0904322712
 H         4.3297958531        1.1969172318      -17.8177245167
 H         4.4755246657        3.6759491186      -19.3699273638
 H         3.0214948509        3.2172674366      -19.7151059398
 H         6.1598362455        4.5049848332      -20.4260110622
 H         6.5795869668        4.9211232729      -22.1191653902
 H         8.4159952259        5.1290811289      -20.2020756610
 H         8.9134164967        4.4720607883      -21.7394261691
 H        10.4923986561       -0.0919832021      -21.7763600609
 H         8.7907457194       -0.1315824640      -21.7985777246
 H         9.7722540996       -1.2787815165      -20.7571490193
 H        11.7545497581        2.2004903639      -21.6605859445
 H        10.7348698212        3.6170058075      -21.7269635663
 H        10.2420469199        2.1234871335      -22.5244160952
 H        11.7499702858        2.2971777330      -18.9315882034
 H        10.3232183795        2.7585475314      -18.1187494074
 H        10.9587959679        3.8734930327      -19.3851182858
 H         5.1338093312        0.5561953288      -22.9394328689
 H         4.9464758906        1.7904854385      -24.2315174498
 H         3.5829071131        1.2636385561      -23.2512670555
 H         4.6083933281        4.4643530568      -23.2106378441
 H         3.7310419366        4.3590026880      -21.6658143208
 H         3.1133320143        3.5026699270      -22.9150663800
 H         4.3140269148        0.4281437117      -15.5837762726
 H         2.6414532645        1.1656422970      -15.4833163104
 H         3.6600796906        1.2356494213      -14.0412785624
 H         4.0499596011        4.6471572127      -14.3934792002
 H         3.5438227578        3.2768507705      -13.4705722851
 H         2.5044555712        4.0282586105      -14.7012101849
 H         8.2204792362        0.8711161855      -11.1931027342
 H         9.1053054446       -0.6170073390      -11.8013894277
 H         7.4512422191       -0.3408049505      -12.1126364147
 H        11.0536038895        1.3245214207      -12.6409773828
 H        10.0974006030        2.6893177352      -12.2853396126
 H        10.5263693356        2.4474046894      -13.8723957478
 H         7.4882259686       -5.6244553893      -16.9740320672
 H         8.0091151887       -4.9312072347      -15.4661673103
 H         8.7421203462       -4.4552248433      -16.8292530390
 H         5.5138167019       -4.8919020614      -17.8567850877
 H         6.7471868465       -4.0895880134      -18.6808933664
 H         5.2012522077       -3.2144427315      -18.0644591128
 H        -0.4476021445       -3.6554456475      -13.2632343835
 H         0.9720672640       -4.5465327172      -12.4970495285
 H         0.9473308086       -4.0878973349      -14.1437211623
 H         0.6818944120       -0.3242586874      -12.7906476587
 H        -0.6210276621       -1.5098764250      -12.3652900015
 H        -0.0592594978       -1.2536866497      -14.0599420881
 H         1.1042868131       -1.3433539799       -4.8061503737
 H         1.5753006799       -0.7024641886       -6.5545196703
 H         2.1255430087       -2.2347864221       -6.1032379914
 H        -0.6208823998       -4.4295967927       -6.4493352387
 H        -0.1218940290       -3.8481574573       -4.9157198432
 H         1.0700902047       -4.2828589093       -6.2492717116
 H        -6.7203866867       -0.9373375555       -5.4582815322
 H        -6.1719532115        0.3879196604       -4.4854698501
 H        -7.7122305184       -0.4556239276       -4.2118344463
 H        -6.1709463044       -0.3942721217       -1.5994181276
 H        -4.6597150144       -0.3854274548       -2.3988826386
 H        -5.2594270859       -1.8070585922       -1.5468662472
 H       -10.4644930949       -6.8727880779        0.8437186575
 H        -9.9902762540       -5.2881462740        1.3577478222
 H        -8.6484039497       -6.2716395371        0.8033767959
 H       -10.4441191717       -7.7603547650       -1.1120919958
 H        -8.7646930742       -7.4878191664       -1.4214300582
 H        -9.9852849125       -7.0136840117       -2.6376043322
 H       -16.8947388353       -1.2672878139       -0.6476059889
 H       -15.3486403699       -1.1409827191       -1.6122405377
 H       -15.3948075677       -0.8798207988        0.0811942677
 H       -15.7733168625       -2.3580783736        1.4896928874
 H       -15.4270548465       -4.1249348552        1.5423522158
 H       -17.1480248961       -3.6501906922        1.1021264305
 H       -18.7572093113       -7.3851172432       -5.7365713762
 H       -17.6868620358       -6.6463889821       -4.5426966889
 H       -17.0738829017       -6.9279531687       -6.0773808295
 H       -18.5939206846       -4.1656802577       -7.9175808189
 H       -18.7468831727       -5.9705039624       -8.0309222160
 H       -17.2709269760       -5.2961493954       -8.0102531591
 H       -22.7218948430       -5.9001621626       -3.9228821272
 H       -23.0838873174       -4.6695574277       -5.2259948782
 H       -24.3447954300       -5.1011240257       -3.9988601780
 H       -24.5272965468       -2.7143073894       -3.0365936881
 H       -23.3850739568       -1.9741872773       -3.8793420439
 H       -23.1667239690       -2.0541536226       -2.1264636282
 Na      -19.3934953202       -5.2962321753       -1.9173786050
 Na        7.9675989740        0.8697118553      -17.6537306058
