232

 C       -17.3774367613      -14.0276847626       -0.3377782766
 C       -16.4916743356      -14.1229982095       -1.6436124387
 O       -16.6756023671      -13.3245351151       -2.5532933748
 C       -15.4685067439      -15.2545277625       -1.8027475514
 C       -14.9714246799      -15.2191637242       -3.2659484576
 O       -15.6940968704      -14.9377838473       -4.1863433507
 C       -13.4654680230      -15.5894186073       -3.5283798633
 C       -13.1939663947      -15.5064717307       -4.9799666102
 C       -13.6818984396      -14.1448414488       -5.5021409171
 O       -13.6553441524      -13.1064618410       -4.7740958645
 C       -13.8946460540      -13.8478633982       -7.1017740581
 C       -14.7745577681      -12.5571755722       -7.1440380194
 O       -15.9292712142      -12.5679168573       -6.8081951255
 C       -14.1471112172      -11.2123966181       -7.3819009132
 C       -15.1512234981      -10.1773467816       -7.6794920115
 C       -16.0088985668       -9.6111444389       -6.4833388887
 O       -16.3364787410      -10.1997432420       -5.4584186492
 C       -16.2382642805       -8.0389982842       -6.5570228685
 C       -14.8196842189       -7.3263681829       -6.5191668590
 O       -13.7455627866       -7.9136483453       -6.2961058804
 C       -14.7138208894       -5.8139820236       -6.5995810344
 C       -13.3063605565       -5.3575161604       -7.1334776315
 C       -13.2141314951       -3.8266783648       -7.0647174921
 O       -13.8459523198       -3.2938316095       -6.2179265633
 C       -12.1870592398       -3.0910218938       -7.9067409839
 C       -10.7053779968       -3.1407550926       -7.3279185829
 O       -10.3651214008       -4.1196909953       -6.7031980189
 C        -9.7887843474       -1.9517441892       -7.6793356980
 C        -9.7946765257       -0.9831944978       -6.4732510291
 C        -9.8236235351        0.5459670322       -6.7343149708
 O       -10.3232695896        1.0036518990       -7.7728053509
 C        -9.2897949496        1.6929386790       -5.6343921312
 C        -7.6424637960        1.8761890170       -6.1073204607
 O        -6.8231255192        1.1736963053       -5.6351239268
 C        -7.5241007728        2.7661856795       -7.3847684997
 C        -6.2758725915        2.4759024965       -8.0154607383
 C        -5.8580287824        3.5483321701       -9.0215403960
 O        -5.8346075041        4.6773098025       -8.6784416170
 C        -5.5273563626        3.1790222868      -10.6657943543
 C        -4.2540539947        2.2841276867      -10.7852021553
 O        -4.2773516341        1.2573247245      -11.4317359931
 C        -2.9783113314        2.6666175025      -10.0001079178
 C        -1.8077747021        1.5391798932       -9.8884816110
 C        -0.3601765056        2.1352868546       -9.8646476953
 O        -0.0283409097        3.0558829793      -10.5075797077
 C         0.7057272001        1.4265909182       -9.0002552330
 C         2.1811572729        1.9315040993       -9.2344678092
 O         2.9955861140        1.1693614022       -9.6580552474
 C         2.4653951319        3.4423438952       -8.9830142158
 C         3.5461165659        4.1530011662       -9.7382171785
 C         2.9549232758        5.3728070342      -10.5027633856
 O         1.8750815866        5.7537446319      -10.2905216125
 C         3.8780949332        6.1658208679      -11.5955699686
 C         4.0647630588        5.1257949890      -12.6344214637
 O         4.9993141786        4.2980248514      -12.5023242509
 C         3.0567524547        4.8502060258      -13.7080830280
 C         3.3294984535        5.7282636924      -15.0114139250
 C         3.7392395795        4.9268649776      -16.2747580860
 O         4.1364123085        3.7863932281      -16.2027186666
 C         3.5573572902        5.7235076729      -17.6736683977
 C         5.0488433743        5.8946754936      -18.3452507570
 O         5.3112326958        5.3027777899      -19.4114912978
 C         5.9380442342        6.7518825029      -17.6122797081
 C         7.3268737431        6.1512260780      -17.5444486556
 C         7.3036365248        4.7814888452      -16.7954856682
 O         6.4147528491        4.6762271417      -15.9887537156
 C         8.3962431122        3.7163510167      -16.9646994603
 C         9.7035713811        4.3627396920      -16.3000598408
 O         9.6249789184        5.2704013131      -15.5116453163
 C        11.0887509068        3.7383043548      -16.5900039681
 C        11.8708794526        3.3259795459      -15.3726468967
 C        11.7018501371        1.7539873056      -15.0739264473
 O        11.1332250665        1.0907740798      -15.9633237821
 C        12.2779507664        1.1542241053      -13.7070439271
 C        11.1262565726        0.0819184388      -13.3299296654
 O        11.4387557822       -1.0783972839      -13.1563656599
 C         9.7237416141        0.6545118484      -13.0967216526
 C         8.6521196262       -0.4353694906      -13.2094798293
 C         7.1703613710        0.1749518363      -13.2414059987
 O         7.0798256302        1.3885460860      -13.1997344031
 C         5.8380902422       -0.8200991970      -13.2378579879
 C         4.9680596019       -0.3311941902      -14.4132681500
 O         4.4760623720        0.8250834982      -14.3501593827
 C         4.4902286883       -1.2801426885      -15.5827476451
 C         6.3963955030       -2.3123700120      -13.3129534775
 C         4.9962147202       -0.7540204655      -11.9162255885
 C        13.6185315710        0.6034816357      -13.9372451957
 C        12.3201279768        2.2686909812      -12.6652908221
 C         8.2125281183        2.3550792944      -16.2379158707
 C         8.6966737354        3.5007979446      -18.4729788445
 C         2.6925941380        4.8370397276      -18.6017148648
 C         3.0686275362        7.1610456440      -17.6279486292
 C         3.3278901266        7.5618636965      -11.9802180649
 C         5.2220310015        6.2895536036      -10.9084141354
 C         0.1976811321        1.7897533743       -7.6177844241
 C         0.6907672670       -0.1669943137       -8.9684967580
 C        -6.7077887437        2.3742094716      -11.2699976167
 C        -5.1968901364        4.4782816836      -11.3505525679
 C       -10.0863684904        2.9701735181       -5.7814830940
 C        -9.3152691468        1.1054275739       -4.2115957855
 C       -12.1416960068       -3.6290151300       -9.3984116502
 C       -12.5916977587       -1.6401670555       -8.0048778762
 C       -17.0707735529       -7.5939462780       -7.8231272937
 C       -16.9497756546       -7.6099845443       -5.2632549780
 C       -12.4579744435      -13.6660272433       -7.6261296285
 C       -14.5401187518      -15.0100086364       -7.9760580018
 C       -14.3164541303      -14.9766655706       -0.7174676826
 C       -16.1408984176      -16.6230527787       -1.4551564797
 H       -16.8905942112      -13.2716954246        0.2833595454
 H       -17.4440119526      -14.9456896597        0.2281145250
 H       -18.3438981702      -13.6471020044       -0.6507812931
 H       -13.2212631601      -16.5698052530       -3.0992148194
 H       -12.7885882181      -14.8108678785       -3.0080587956
 H       -13.7514367193      -16.2084340534       -5.5934427426
 H       -12.1288043769      -15.5582911246       -5.3156828992
 H       -13.4157650461      -11.2822883884       -8.1578123955
 H       -13.3764930846      -10.9187737308       -6.5932401623
 H       -15.8314447815      -10.5041322188       -8.4622731961
 H       -14.5987797244       -9.3414277736       -8.1484517319
 H       -14.7552583624       -5.2910522834       -5.6584664941
 H       -15.5051076500       -5.3654858538       -7.1710935394
 H       -13.0528256449       -5.7278803629       -8.1435204905
 H       -12.4814481632       -5.6849506814       -6.6142928982
 H        -9.9896469242       -1.4186168120       -8.5989885319
 H        -8.7809872910       -2.2026236323       -7.8952460775
 H        -8.9373478539       -1.3026022543       -5.8421937387
 H       -10.7084972546       -1.0227800658       -5.9430974432
 H        -7.7038502433        3.7969809524       -7.2013085149
 H        -8.3060319062        2.5111564970       -8.1844347577
 H        -6.1812172342        1.4569571971       -8.3899376386
 H        -5.5173179477        2.5330220379       -7.1997635094
 H        -3.2361427413        2.9569567203       -8.9765241924
 H        -2.3868811463        3.5620712104      -10.4382822953
 H        -1.9114607455        0.8332883220      -10.7760473235
 H        -1.8907673120        0.9034025299       -9.0599003949
 H         2.6653674088        3.5140610269       -7.8551606191
 H         1.5508049248        4.1153636459       -9.2125582743
 H         4.0456136423        3.6741318002      -10.5803384010
 H         4.3741094654        4.5667518424       -9.1397622864
 H         2.0762024845        5.1020460168      -13.3262774780
 H         3.0774699988        3.7837361773      -14.0210875177
 H         4.0489563604        6.4710146344      -14.8480216251
 H         2.3898530025        6.2695734439      -15.1171726786
 H         5.6020359867        6.8762476514      -16.5876211768
 H         6.1649469546        7.7889127659      -18.0143293078
 H         8.0426005594        6.7298416752      -16.9992109027
 H         7.7003246081        6.0584403799      -18.5194252269
 H        11.5476112473        4.5751823025      -17.0560605921
 H        10.9247723934        2.7895171727      -17.1368730561
 H        11.5895858557        3.9987580837      -14.6277617247
 H        12.8799344867        3.6094667894      -15.6122133197
 H         9.6529259539        1.3752465052      -13.8789342573
 H         9.5138900519        1.2829935366      -12.1625065873
 H         8.7252415720       -1.1245340457      -12.3863646060
 H         8.8430831248       -1.1236978691      -14.0430943377
 H         5.1818802657       -1.9001375679      -16.0770470448
 H         4.2142014004       -0.4941025681      -16.2932916284
 H         3.6643669749       -1.7438626187      -15.2222273387
 H         5.6047580271       -3.0490134640      -13.5766888106
 H         6.7620991284       -2.5024399123      -12.3021702956
 H         7.1583493087       -2.3176327422      -14.1159218546
 H         4.1470360425       -0.1762775483      -12.0679189689
 H         5.4881613233       -0.4252339122      -10.9725015357
 H         4.6224956712       -1.6789663317      -11.7032616734
 H        14.3085949696        1.4004248058      -14.1997650252
 H        13.6522044239       -0.1621634520      -14.7376326655
 H        14.1613305945        0.1563957152      -13.0734146508
 H        13.1557285423        2.9462794812      -12.8302676590
 H        12.6689655534        1.8396187186      -11.7152411667
 H        11.3021827406        2.6794489884      -12.5010072267
 H         8.0093021241        2.5260657980      -15.1529677599
 H         9.0762642408        1.8099313335      -16.3833098273
 H         7.4934375780        1.9290159093      -16.9403185394
 H         9.6601659631        3.8726928499      -18.6084514094
 H         8.0773158538        3.9835399744      -19.2654194245
 H         8.8050480156        2.3441768358      -18.7202312423
 H         1.8409984336        4.3861711958      -18.0599903675
 H         3.3803821770        4.1968254081      -19.0833232872
 H         2.3000845973        5.4174616729      -19.5082619634
 H         3.4057022400        7.6137906556      -18.5635135575
 H         3.3636065414        7.7965754464      -16.7499849179
 H         1.9698736520        7.2095170546      -17.5162345726
 H         2.5379754773        7.8618688811      -11.3343298442
 H         3.1029571349        7.5551833025      -13.0099893659
 H         4.2109561503        8.2579210905      -11.8378414972
 H         5.8845424937        6.9389265925      -11.5360682216
 H         5.7841702821        5.4082788517      -10.7812012138
 H         4.9525706827        6.8927674467      -10.1149867783
 H        -0.0200083686        2.8570532247       -7.4730775964
 H         0.9521974079        1.5652243443       -6.9147891205
 H        -0.5886508283        1.2296443773       -7.3226891798
 H        -0.2553828481       -0.7465106452       -8.6948082165
 H         1.5511078650       -0.4353748838       -8.3185529008
 H         0.9449267529       -0.5159936252       -9.9989385374
 H        -7.0657686895        1.4186117200      -10.8308458682
 H        -6.4499470112        2.2140653521      -12.3211817069
 H        -7.5810161012        2.9835640115      -11.3588065209
 H        -4.2848702694        4.9431396387      -10.9076984589
 H        -6.0100771488        5.1342154836      -11.3855979088
 H        -4.9405663089        4.1713571182      -12.3707291563
 H       -10.9911708219        2.7973853181       -5.2684713810
 H       -10.2229600737        3.2727693935       -6.7920546409
 H        -9.6126790604        3.7590182954       -5.1407495624
 H        -9.4566747396        1.7773383856       -3.3672736732
 H        -8.3844174550        0.5900138915       -4.1596906315
 H       -10.2128711717        0.5180578293       -4.0975731690
 H       -11.4874103833       -2.9040018444      -10.0434450043
 H       -13.1104584440       -3.7156055538       -9.8924694408
 H       -11.5476768148       -4.5913881672       -9.2993108240
 H       -13.5600419486       -1.3910496974       -8.3756886261
 H       -11.8707513381       -1.0955053353       -8.5436714985
 H       -12.7216916129       -1.2164587359       -6.9819887342
 H       -16.5532888788       -8.0059824335       -8.6969058815
 H       -17.1817522530       -6.5482035972       -7.7176749865
 H       -17.9981810260       -8.0345433344       -7.6778764024
 H       -16.6290899983       -8.0212751938       -4.3203807975
 H       -18.0642381401       -7.8842339790       -5.2636681065
 H       -17.0530761473       -6.5492050507       -5.2611720778
 H       -11.8127609139      -13.2510294821       -6.8520558802
 H       -12.4224112799      -13.0243799683       -8.5637928232
 H       -12.0652710199      -14.6125286775       -7.9997928745
 H       -15.5626375975      -15.0980245215       -7.6585210514
 H       -13.9816356837      -15.9790799226       -7.9371984392
 H       -14.5943957001      -14.6467405552       -8.9184028419
 H       -13.7193190568      -14.1146437285       -0.8498432167
 H       -13.7300960135      -15.8402957955       -0.7482387120
 H       -14.7722278627      -14.8551862536        0.3397715832
 H       -16.9483018773      -16.8707609728       -2.2014519210
 H       -16.6464222413      -16.6259542980       -0.4718522874
 H       -15.3767831142      -17.3962523831       -1.5496537955
 Na      -15.8356446557      -12.2530653635       -4.3511956892
 Na        5.3675654366        2.9661639080      -14.4097286529
