232

 C       -23.4795374633       -4.6467599313       -0.5001625205
 C       -22.3987627120       -4.7188325503       -1.6143789922
 O       -21.4559915155       -5.5000169361       -1.3102850670
 C       -22.6282723822       -3.8922215568       -2.9085658817
 C       -21.3863284847       -3.4347225403       -3.6541745893
 O       -20.4400044252       -2.9680897140       -2.9996867467
 C       -21.4814519784       -3.2407731055       -5.1725648255
 C       -20.4627188953       -4.1281520827       -6.1086305646
 C       -19.5240040328       -5.0943538445       -5.4400459785
 O       -19.7684067207       -5.5586557891       -4.3375619593
 C       -18.1227291357       -5.3399858757       -6.0516103187
 C       -17.3091250418       -4.0921025685       -5.2557147161
 O       -17.2797254018       -3.0266062618       -5.7763882910
 C       -16.6474095040       -4.3440245025       -3.8390585807
 C       -17.0725641502       -3.1035722091       -2.9046490998
 C       -16.9281264416       -3.5832891444       -1.3243965879
 O       -17.7626100418       -4.3340327519       -0.8621019905
 C       -15.7894065555       -2.9833098500       -0.3750895972
 C       -14.2552017485       -3.0281053477       -1.1285039879
 O       -14.1937105944       -2.7053361611       -2.2814364446
 C       -13.0461160388       -3.6423882546       -0.3403264689
 C       -11.7679021360       -3.6311258857       -1.1544779806
 C       -11.2325684259       -5.0849859999       -1.3986745564
 O       -11.9943774027       -5.8858652954       -1.9024290108
 C        -9.8379223306       -5.3640142863       -0.8072250146
 C        -8.7368241510       -4.2983890768       -1.1972836696
 O        -8.4872055018       -3.2767296033       -0.5386484649
 C        -7.9065408749       -4.6299233979       -2.3981848242
 C        -6.7019030664       -3.7139577742       -2.4984720353
 C        -6.8312516108       -2.7485965385       -3.6612953194
 O        -7.6386789932       -2.8554375266       -4.5529170197
 C        -5.7334609234       -1.6068295964       -3.7117675314
 C        -4.4506823723       -2.3091422639       -4.3393557204
 O        -3.8187080172       -3.1454374869       -3.7503849219
 C        -3.7143291593       -1.8057567426       -5.6383335927
 C        -2.4016281738       -2.5833532709       -5.9077129721
 C        -1.1492443308       -1.5995861727       -6.0361209124
 O        -1.1065825653       -0.5435980037       -5.4303759881
 C        -0.0065999819       -1.9607235368       -6.9806339271
 C        -0.4044718066       -1.9683257613       -8.5645028217
 O        -1.5477579231       -1.8455366346       -8.9093612531
 C         0.7462353444       -2.3441644432       -9.4972844296
 C         0.5344716805       -1.9862648745      -10.9589992735
 C         1.4327996717       -2.7671122434      -11.9020433354
 O         2.4108887618       -3.3397312905      -11.4985176886
 C         1.0290947752       -2.4498313663      -13.4426749863
 C         2.2844846763       -2.3571466522      -14.3238942236
 O         2.3055887910       -1.4147612088      -15.1570120494
 C         3.4995438944       -3.2358374727      -14.1582969012
 C         4.3159574881       -3.3528503532      -15.3885648352
 C         5.7595904026       -3.4473178458      -15.1615594348
 O         6.2381760653       -3.3855494761      -14.0475622965
 C         6.8677830824       -3.6065889491      -16.3708908707
 C         7.6603686121       -2.2789118951      -16.3732593406
 O         7.2099036077       -1.3567134431      -17.0269641128
 C         8.7383204292       -2.1331474819      -15.4249954622
 C         8.2973675742       -1.1604822393      -14.3167199446
 C         8.9214002975        0.2106657554      -14.3933063682
 O         9.5513280584        0.7411345069      -15.2605484116
 C         8.8225033433        1.0657618076      -12.9952723065
 C         7.5390397107        2.0841484957      -13.3698054111
 O         6.4006814542        2.0216191376      -12.9665001973
 C         7.9803529358        3.1757161235      -14.4684481133
 C         6.7930151961        3.5481460539      -15.5055028739
 C         5.8863984497        2.3319653346      -15.8177502190
 O         6.2150967344        1.2851250573      -16.3412555849
 C         4.2907285268        2.4260911695      -15.4477521403
 C         3.8735212533        2.8527793080      -16.8235384636
 O         3.8079533374        3.9887597430      -17.1320381989
 C         3.5262472661        1.7843858857      -17.8937751222
 C         3.3977807512        2.4836953368      -19.3386371292
 C         3.6530235040        1.4119737670      -20.4949124626
 O         3.6060612291        0.2457950533      -20.3656050543
 C         4.3218394283        2.0482704059      -21.8275382504
 C         5.8752631326        2.3230642755      -21.3788093267
 O         6.7045599422        1.4242397233      -21.3742215996
 C         6.3600403484        3.6153329162      -20.6224049466
 C         7.8875187969        3.8886516117      -20.7693141932
 C         8.6820089100        2.9947166986      -19.7695516939
 O         8.1591229525        2.7837893525      -18.6952388183
 C        10.0337763687        2.4020802882      -20.1604233326
 C         9.6650034087        0.8485239854      -20.3061907884
 O         9.3627809801        0.1907243481      -19.3354561485
 C         9.9731622529        0.2480981845      -21.7384224624
 C        10.6948919706        3.1455765001      -21.4237079503
 C        10.9844720958        2.4392503270      -18.9413661530
 C         4.4984833956        1.1152542591      -23.0371425511
 C         3.7148832899        3.3589304345      -22.4619115666
 C         3.8027175230        1.0391168411      -15.0795148171
 C         3.8219162633        3.4963405798      -14.4948479001
 C         8.3120835579        0.2031082533      -11.7789834380
 C        10.1848247171        1.8103979832      -12.6384764395
 C         7.7624093712       -4.8713937593      -16.1399293869
 C         6.0343946353       -3.9107328871      -17.6668488934
 C         0.3794689996       -3.8625817040      -13.7975640259
 C         0.0126627962       -1.3548927924      -13.7213635405
 C         1.0895301581       -0.8509274327       -6.7571760403
 C         0.4380408751       -3.4206250130       -6.7473421924
 C        -6.2158519334       -0.5168100750       -4.6266275303
 C        -5.2145184342       -1.0646443267       -2.3562648032
 C       -10.0305896245       -5.1880647568        0.7366387155
 C        -9.4908605272       -6.8272956966       -1.0831705221
 C       -16.0397292935       -1.4276861805       -0.2467125210
 C       -15.9316388413       -3.5681320323        1.0128184350
 C       -17.5099430521       -6.6327387702       -5.6736302958
 C       -17.9362752922       -5.1189492236       -7.5798133658
 C       -23.8239844688       -4.4861725205       -3.7297805518
 C       -23.2057605446       -2.4779923555       -2.4987540444
 H       -23.5237971016       -3.7074005539        0.0644871411
 H       -23.3946168622       -5.4216745526        0.3388814735
 H       -24.4888995412       -4.8194237463       -0.9565835902
 H       -21.4369545325       -2.1714369842       -5.3504518395
 H       -22.4892629605       -3.6055146498       -5.4987180667
 H       -19.8717953378       -3.3475204934       -6.5728330046
 H       -20.9401511330       -4.6305603777       -6.9283635746
 H       -15.5188770876       -4.4952362025       -3.7530327854
 H       -17.1410839633       -5.2074720608       -3.4038262773
 H       -18.0884960291       -2.8402331263       -2.9770300287
 H       -16.5252226072       -2.2345049274       -3.2240822958
 H       -13.2755264174       -4.7182185856       -0.1544114757
 H       -12.9764241254       -3.1450104174        0.6141991578
 H       -11.0559594505       -2.9694242906       -0.5637421678
 H       -12.0501117304       -3.1735060621       -2.1037478481
 H        -8.4733773211       -4.2902453124       -3.3011093042
 H        -7.6945452510       -5.7186225885       -2.5641094757
 H        -5.7621209431       -4.3329280098       -2.7101154763
 H        -6.4989907514       -3.2127813463       -1.4732079434
 H        -3.4433471965       -0.7384105621       -5.6683782020
 H        -4.2972205700       -2.0515648052       -6.5648578278
 H        -2.4113866906       -3.2030688203       -6.7683517109
 H        -2.0372901251       -3.1156785014       -5.0360103258
 H         0.7365461403       -3.4722254920       -9.5312502689
 H         1.6846446421       -2.0580321583       -9.1498318745
 H         0.6764141456       -0.9174774691      -11.0530616374
 H        -0.5289036149       -2.2858264155      -11.1673030604
 H         3.0659057344       -4.1918167302      -13.8928698585
 H         4.1780532196       -3.0010855729      -13.2940634945
 H         4.1699172729       -2.4433117906      -15.9947301138
 H         3.8093562301       -4.1195525608      -15.9869929171
 H         9.6364317074       -1.7657151930      -15.9165192934
 H         9.0869146083       -3.1169230530      -14.9837154721
 H         8.6909835908       -1.5605931189      -13.4290741315
 H         7.2177570892       -0.9756641586      -14.1404371480
 H         8.8369069528        2.9110295360      -14.9712297010
 H         8.4264832049        4.0443684698      -13.9732626356
 H         7.3082559086        3.8125269630      -16.4931325575
 H         6.2275592247        4.3516330044      -14.9762954456
 H         2.6561066195        1.1866133903      -17.7494451755
 H         4.3144556040        1.1059146998      -17.9780232579
 H         4.0275709914        3.3686254474      -19.5184817638
 H         2.3894981277        2.8345104670      -19.5596623645
 H         6.2609613676        3.5539064479      -19.5547894901
 H         5.6957170350        4.3821484176      -21.1188063708
 H         8.1283927402        4.8732517884      -20.4157748968
 H         8.1829352924        3.8082574707      -21.7817995681
 H        10.9874876146        0.4246432459      -21.8917468477
 H         9.2807556256        0.7748651925      -22.4947747653
 H         9.8228151043       -0.8369586684      -21.9417184193
 H        11.6695999919        3.4784692416      -21.2438542351
 H        10.2933829012        3.9809815825      -21.8340917164
 H        10.8241851713        2.5294384321      -22.4092841031
 H        11.8558409569        1.8604442608      -19.2157601376
 H        10.2860933010        2.2013539162      -18.1159619331
 H        11.3723001286        3.4268249699      -18.7547342337
 H         5.0211456453        0.2320507449      -22.7206948069
 H         5.0521923876        1.5775792508      -23.8939392181
 H         3.4661641845        0.7722160826      -23.3816654402
 H         4.3649124454        3.9908651831      -23.1549587989
 H         3.5375241668        4.1539214057      -21.6849677136
 H         2.7480519392        3.1548737871      -23.0566114469
 H         4.5539534074        0.2683120135      -15.2013471366
 H         2.8581486171        0.8153877125      -15.5327105930
 H         3.5075028715        1.1351164174      -14.0187541810
 H         4.3322674901        4.4206339221      -14.7085516116
 H         4.0209226385        3.2802778983      -13.4301288607
 H         2.7277241905        3.5493564390      -14.5382569580
 H         8.1466959322        0.7761035023      -10.8355670527
 H         8.9333107540       -0.6328534438      -11.4489996254
 H         7.3679331246       -0.2583700225      -12.1041582875
 H        10.9316238784        1.1920115142      -12.1724407325
 H        10.0313265951        2.7248017931      -12.0781605363
 H        10.6193905614        2.1348616204      -13.5522970566
 H         7.1426527890       -5.7559848410      -16.3391117220
 H         7.8497326704       -4.9516108548      -15.0247729762
 H         8.8004044002       -4.9599356562      -16.7002973475
 H         5.5209657799       -4.8228822003      -17.4086033514
 H         6.7904531996       -4.1222165643      -18.4588084108
 H         5.4350539111       -3.1873595333      -18.1074027611
 H        -0.2243943337       -4.1560596434      -12.9722976754
 H         1.1157200963       -4.6632505146      -13.8543428520
 H        -0.2246558731       -3.8088198440      -14.6413344749
 H         0.3527976891       -0.3391053067      -13.4870345804
 H        -0.9170574545       -1.5272582074      -13.1258682469
 H        -0.2703664054       -1.3870489919      -14.7993149120
 H         1.7637947107       -0.9677895148       -7.6365033621
 H         1.5722284282       -0.9653243657       -5.8123752983
 H         0.6059735970        0.0738836588       -6.7993238280
 H        -0.3308653795       -4.0219085104       -7.1761739944
 H         0.6266598144       -3.7970143429       -5.6950489618
 H         1.3923345177       -3.6452457343       -7.2752792758
 H        -6.1681140834       -0.8598064604       -5.6523187387
 H        -5.5774754061        0.4146806185       -4.6201593695
 H        -7.1929412286       -0.2078892930       -4.2751901443
 H        -6.0335918345       -0.5232434782       -1.7371510198
 H        -4.3302136943       -0.4150793558       -2.5103974817
 H        -4.7948593451       -1.9081239106       -1.7804348762
 H       -10.7860967812       -5.8333327365        1.1596505679
 H       -10.2011739911       -4.1819512645        0.9554775615
 H        -9.0877102214       -5.6261422428        1.1669158785
 H       -10.2999645598       -7.4714172184       -0.7626654044
 H        -8.6464843324       -7.0726050680       -0.4596198157
 H        -9.2417139414       -6.9824959211       -2.1497140497
 H       -17.0711200451       -1.1841343959       -0.2398969027
 H       -15.7530884503       -0.8893090731       -1.1485295665
 H       -15.5922963639       -0.9926499096        0.6256465942
 H       -15.0103462546       -3.6039320744        1.4744771660
 H       -16.3832440633       -4.4865704239        0.9885014706
 H       -16.5132656358       -2.9159060618        1.5650357608
 H       -17.9807764012       -7.6027060905       -6.0737691423
 H       -17.4384337433       -6.8007898336       -4.6250133127
 H       -16.5130731015       -6.7010766043       -6.0507143294
 H       -18.4564423622       -4.3296263450       -8.0163366864
 H       -18.3655712599       -5.9980473772       -8.1833262932
 H       -16.8576150170       -4.8710855143       -7.6919154306
 H       -23.5795498391       -5.4042076740       -4.2566986784
 H       -24.1867048234       -3.8126432365       -4.4991472178
 H       -24.6327820834       -4.7429033973       -3.0803419950
 H       -24.2448605045       -2.5724930659       -2.0991711313
 H       -23.0898408531       -1.8484216879       -3.4382071080
 H       -22.6395337285       -1.9020461515       -1.7463310637
 Na      -19.4104592206       -4.8964570803       -2.2270593790
 Na        8.4179241049        0.9229982233      -17.2399378270
