232

 C       -23.1469451116       -4.6351175950       -0.3337836347
 C       -22.3493787281       -4.6576493675       -1.5612927428
 O       -21.5181554535       -5.5132248940       -1.7021876972
 C       -22.7110924042       -3.7522067085       -2.8099647859
 C       -21.4610981063       -3.4872037480       -3.7607476830
 O       -20.4169961916       -3.1459172096       -3.2431420260
 C       -21.5684428203       -3.5412992802       -5.2741129033
 C       -20.4122563686       -4.0830083616       -6.0676539219
 C       -19.4142779850       -5.0767254197       -5.3886109867
 O       -19.6762879183       -5.6380138749       -4.3253564949
 C       -18.0156293516       -5.2931446881       -5.9625634958
 C       -17.2131858683       -4.0666666996       -5.2340021645
 O       -17.1493633603       -3.0297777940       -5.8843451390
 C       -16.6862236607       -4.1738614923       -3.8467860113
 C       -16.9777358876       -3.0435404657       -2.8812835301
 C       -16.8867304582       -3.4522978383       -1.3733132919
 O       -17.7031168632       -4.1612775749       -0.7671461709
 C       -15.7079635371       -2.9109104511       -0.3952976321
 C       -14.3602564898       -3.0275437078       -1.0999579899
 O       -14.3669113290       -2.6219004383       -2.2625586696
 C       -13.2328809570       -3.6066511319       -0.3155443939
 C       -11.8669469148       -3.6128577433       -1.1308064974
 C       -11.1965748791       -4.9216882637       -1.3286208615
 O       -11.6582832915       -5.7167558599       -2.1408816483
 C        -9.9111894657       -5.2941811167       -0.6254742131
 C        -8.7984851070       -4.2982894592       -1.1543486940
 O        -8.6992221910       -3.2627972952       -0.5655368308
 C        -7.9952731868       -4.5028414156       -2.4781458217
 C        -6.6376933304       -3.7363065853       -2.5012052177
 C        -6.6233826946       -2.7446621538       -3.7131819261
 O        -7.4483750378       -2.7880021489       -4.6519762635
 C        -5.5837421474       -1.6056019329       -3.8186988832
 C        -4.2174043133       -2.3226114615       -4.3806665138
 O        -3.7846671091       -3.2439699821       -3.7230984803
 C        -3.7015917603       -1.9027120882       -5.6807121124
 C        -2.4100384516       -2.6011083524       -6.1779749970
 C        -1.2043378723       -1.5589917360       -6.1163742503
 O        -1.2375821639       -0.6867971456       -5.3060841882
 C        -0.0587629928       -1.8738650485       -7.0677514117
 C        -0.4439203578       -1.9233282380       -8.5973888726
 O        -1.5729112957       -1.6969616175       -9.0377652681
 C         0.7652925162       -2.1597011462       -9.6441471980
 C         0.3188498236       -2.0720408485      -11.1430943059
 C         1.2859969423       -2.7409651461      -12.1469821783
 O         2.3436956603       -3.2384198967      -11.7690729705
 C         0.9552746011       -2.6433769519      -13.7341174811
 C         2.2565641948       -2.3478129528      -14.5022200187
 O         2.1913436266       -1.5161978118      -15.3305477569
 C         3.4712695354       -3.2433325200      -14.2062012706
 C         4.3175759111       -3.4363603422      -15.5907957818
 C         5.8105008302       -3.4011683855      -15.2394454330
 O         6.1261961529       -3.2137458482      -14.0646929996
 C         6.9005251259       -3.4864475967      -16.3885428551
 C         7.6499562088       -2.2223393318      -16.2909485362
 O         7.4031432007       -1.2835335615      -17.0519976512
 C         8.7463054608       -2.1010056866      -15.2150141374
 C         8.3077786726       -1.3862103298      -13.8793021173
 C         8.9141621243        0.0607082305      -14.0629220333
 O         9.5627786728        0.4047116019      -15.0762655839
 C         8.7937943677        1.0990280668      -12.9473394449
 C         7.6484856835        2.1932329923      -13.2979810813
 O         6.6640026263        2.3683599970      -12.6034608601
 C         7.9790583836        3.0981397470      -14.5119144284
 C         6.7252133836        3.5047325336      -15.3710236769
 C         5.8915999407        2.2222457224      -15.8201628987
 O         6.2884756822        1.2116729435      -16.4234080279
 C         4.2942377457        2.3518381327      -15.5313162972
 C         3.7664368976        2.8014234959      -16.9547360091
 O         3.9303545116        4.0190028139      -17.2335048852
 C         3.5688775046        1.8982575857      -18.0590405643
 C         3.1721061670        2.4863424197      -19.4049584402
 C         3.6885964531        1.4452839490      -20.4900999226
 O         3.4503732274        0.2410833100      -20.3872638229
 C         4.3507366005        1.9469917381      -21.7968291071
 C         5.8596266671        2.1674037423      -21.2853540801
 O         6.6216253810        1.2320035938      -21.2731106134
 C         6.1940082227        3.4417110381      -20.4675844717
 C         7.6867465180        3.6724085621      -20.4745831222
 C         8.5581615639        2.9295159668      -19.5202034642
 O         8.1626020986        2.7422095620      -18.3649340421
 C        10.0125644435        2.3812301419      -20.0866306861
 C         9.6410768761        0.7758641882      -20.4717660101
 O         9.2344256021        0.0262124817      -19.6262594019
 C         9.8226876948        0.3295548903      -21.9766031467
 C        10.6939236524        3.2535819845      -21.1709611737
 C        10.9455815342        2.4083830700      -18.7874018653
 C         4.3398671557        0.8017499724      -22.8376643597
 C         3.5928637162        3.1978217975      -22.2142363036
 C         3.6857316244        1.0097699830      -15.0494303166
 C         3.9946823370        3.3890492381      -14.4130543106
 C         8.2874626764        0.4764775045      -11.5968487150
 C        10.1932603680        1.8536869055      -12.6952298929
 C         7.7170216173       -4.6939053590      -15.8683881784
 C         6.3110212167       -3.5562552891      -17.8024279730
 C         0.4471871961       -3.9904197174      -14.2750444130
 C        -0.0323095176       -1.5007020759      -13.8900930075
 C         1.1329621921       -0.6719516951       -6.8920823553
 C         0.6927436379       -3.1634843843       -6.6853434880
 C        -6.1182818415       -0.4317641947       -4.7311502486
 C        -5.3646536521       -1.0304046649       -2.3797136887
 C       -10.0746281187       -5.1013789078        0.8947302021
 C        -9.5165757883       -6.7693942989       -0.8874181097
 C       -16.0296131765       -1.4473251855       -0.2055002187
 C       -15.7215151023       -3.7481553563        0.9296792839
 C       -17.6085254193       -6.6864770101       -5.6276162914
 C       -18.0286896792       -5.0955665199       -7.4522020314
 C       -23.7506186883       -4.7099355957       -3.5535191464
 C       -23.2144962954       -2.3984519745       -2.2994495872
 H       -22.9485580076       -3.7975849965        0.2960388888
 H       -22.8381012324       -5.4403439731        0.2749929187
 H       -24.1746926387       -4.7703485923       -0.4557700169
 H       -21.7158801423       -2.4241480441       -5.4370952960
 H       -22.4927952975       -3.9766443189       -5.6151862278
 H       -20.0290232453       -3.1922041171       -6.6034880835
 H       -20.7283793494       -4.8323737189       -6.8876518116
 H       -15.6418243333       -4.3190592883       -3.9887324147
 H       -17.0083636022       -5.0993388164       -3.3563821001
 H       -18.1239060642       -2.7971354672       -2.9737665164
 H       -16.4112962865       -2.1081343556       -3.0039421786
 H       -13.5134167621       -4.6466705306       -0.2074655872
 H       -13.2240272152       -3.1319122838        0.6995937069
 H       -11.2180049303       -2.8606418210       -0.7873363450
 H       -12.2257893524       -3.2875216829       -2.1616156701
 H        -8.6409528686       -4.1536264170       -3.3097380170
 H        -7.8794412586       -5.5762947827       -2.5839266756
 H        -5.7902315572       -4.3763422724       -2.4925417668
 H        -6.6266147647       -3.2392711121       -1.5810699632
 H        -3.4968597876       -0.8250713397       -5.5964978675
 H        -4.4300316373       -2.0544789880       -6.4448573177
 H        -2.4218839448       -2.7179267581       -7.3036568324
 H        -2.1392684883       -3.5500680538       -5.5913196411
 H         1.1218042200       -3.1524005151       -9.5201571730
 H         1.6214682208       -1.4559580855       -9.4371189865
 H         0.0486911443       -1.0059874790      -11.3379641602
 H        -0.6000678070       -2.6717933234      -11.1679811555
 H         3.2794676936       -4.1345344102      -13.5932835515
 H         4.1186346120       -2.6595058965      -13.5784592325
 H         3.9741960708       -2.5874157370      -16.2635868717
 H         3.9768020470       -4.4254524027      -15.9695392544
 H         9.5869153798       -1.5000836923      -15.7170374871
 H         9.1769845505       -3.0449551824      -15.0030362104
 H         8.8710712728       -1.9625951176      -13.0631159108
 H         7.2367009042       -1.4032835781      -13.7577294690
 H         8.8478222493        2.5783914657      -15.1267771806
 H         8.6045070096        3.9919730387      -14.2653001177
 H         7.0708084809        3.9238825847      -16.2910618008
 H         6.2097900858        4.1426752737      -14.7098726452
 H         2.7559221093        1.1333968429      -17.8482543589
 H         4.4847948348        1.1761326445      -17.9480783743
 H         3.6436314001        3.4513899335      -19.6295004474
 H         2.0530397375        2.5050765172      -19.3832246771
 H         5.9599960238        3.1932125050      -19.4156932761
 H         5.6002768842        4.2219215877      -20.8377769525
 H         7.9114897521        4.7557370233      -20.2552801148
 H         8.0575678057        3.4459023655      -21.5079853778
 H        10.8975967078        0.0557427682      -22.1341140644
 H         9.4979482374        1.0991195670      -22.6143933631
 H         9.2474746013       -0.4957721238      -22.2640933135
 H        11.7870205192        3.5205131583      -21.0641072687
 H        10.2688826766        4.2788190317      -21.3230341297
 H        10.6047117878        2.8184858594      -22.1373823190
 H        11.8937172215        2.2256234678      -19.2568606151
 H        10.5277016016        1.8169080152      -17.9760387407
 H        11.1156657848        3.4447200427      -18.4613525746
 H         4.5990174420       -0.1011315696      -22.2741515830
 H         5.1000742581        0.9237431855      -23.5504624655
 H         3.3793864694        0.6332134332      -23.2852700026
 H         3.8885878040        3.5568582422      -23.1527489339
 H         3.7402822434        3.9955513178      -21.5082746729
 H         2.5866649082        3.0068135602      -22.4052911133
 H         3.8522755057        0.1913229859      -15.7831095514
 H         2.6249301608        1.2073398503      -14.9727851438
 H         4.0894386823        0.6529992011      -14.1224762944
 H         3.8236927388        4.4499088673      -14.7192138433
 H         4.7290029043        3.3767166785      -13.6142588647
 H         3.1093744916        3.0189211325      -13.8753808029
 H         8.2286963568        1.3130835911      -10.9499925768
 H         8.9721945039       -0.1389469831      -11.0680081584
 H         7.2871738509        0.0429306186      -11.6467860258
 H        11.0747727008        1.1625579969      -12.7187243986
 H        10.1031140727        2.3413416112      -11.7182022347
 H        10.5300809200        2.6266743531      -13.4121803783
 H         7.1186079205       -5.5613207672      -16.1562305975
 H         7.9560067108       -4.8458423661      -14.8351319721
 H         8.5225146076       -4.7146330129      -16.5014582987
 H         5.4342369519       -4.2263092621      -17.7351766781
 H         6.9895723448       -3.7255409263      -18.6214071843
 H         5.9792367904       -2.4973432784      -18.1063544315
 H        -0.6658493326       -3.9825045005      -14.3598003144
 H         0.7167396965       -4.8427701373      -13.6591750276
 H         0.8892776410       -4.1456474404      -15.2951079789
 H         0.4171011678       -0.6621984075      -13.3623128881
 H        -0.9558427896       -1.6531764545      -13.3860865569
 H        -0.1334169782       -1.1443496722      -14.8938027835
 H         1.6107538722       -0.5323591373       -7.8094848840
 H         1.8311903394       -1.1293325647       -6.1671734014
 H         0.6578210271        0.2985197801       -6.6355918844
 H         0.0176245714       -4.0253419607       -6.8541787467
 H         0.9820486097       -3.1839560355       -5.6957736820
 H         1.5702680393       -3.2817019331       -7.2623366543
 H        -6.4877004273       -0.8467347721       -5.6922913115
 H        -5.3210133389        0.2048185015       -5.0462091560
 H        -6.8128993777        0.2005645535       -4.1828749533
 H        -6.3234829103       -0.9235016987       -1.9569942069
 H        -4.8655661406       -0.0470162600       -2.4469662034
 H        -4.6427964691       -1.5755434113       -1.7449384499
 H       -10.5421565117       -6.0158225845        1.3005896594
 H       -10.5774574217       -4.1135541175        1.1340359680
 H        -9.1202443956       -5.1074580345        1.3250256748
 H       -10.4077508005       -7.3685171061       -0.9403640098
 H        -8.8375238922       -7.1918812680       -0.1363120888
 H        -9.0243507608       -6.7754980507       -1.8428008716
 H       -17.1245749883       -1.2297131776        0.0861860342
 H       -15.9396464084       -0.7753998478       -1.0577156980
 H       -15.3417487438       -1.0805952425        0.5953361519
 H       -15.4278295329       -3.1037640170        1.7912168356
 H       -15.1213756788       -4.7158320859        0.8621400456
 H       -16.7925359973       -3.8996252347        1.2236004603
 H       -18.1816522622       -7.4019280310       -6.0742622700
 H       -17.6258673466       -6.8865881736       -4.5252522895
 H       -16.5921509169       -7.0146262871       -5.9531310190
 H       -18.8118504249       -4.3844380965       -7.8768396693
 H       -18.3757995685       -5.9312863770       -7.9216772789
 H       -17.0545069754       -4.7690939713       -7.7288461192
 H       -23.3718449842       -5.5688741546       -4.1769868868
 H       -24.3257575443       -4.1751670479       -4.2398290903
 H       -24.4501732832       -5.0996946270       -2.8385304324
 H       -23.8675021455       -2.5511649621       -1.4904837287
 H       -23.5103256136       -1.6755992205       -2.9855461064
 H       -22.3315326841       -1.9624221130       -1.8133801929
 Na      -19.4146574022       -4.6351168251       -2.1273696573
 Na        8.5185934971        0.5714842992      -17.3982546302
