232

 C       -23.0042846466       -4.5864577808       -0.2767110319
 C       -22.2398801910       -4.7272101995       -1.5640334906
 O       -21.3533764376       -5.6032204054       -1.7699907940
 C       -22.6921620403       -3.7848574521       -2.7882604582
 C       -21.5328959735       -3.4146452839       -3.8076673605
 O       -20.4439355303       -3.0377172438       -3.3780813216
 C       -21.7362884830       -3.6629094029       -5.3493518585
 C       -20.4343990148       -4.0516584420       -6.0295649943
 C       -19.4920021483       -5.1091427470       -5.3082689652
 O       -19.7698536490       -5.6558987626       -4.2367783403
 C       -18.0560458090       -5.2355918268       -5.9565284037
 C       -17.1843832900       -4.0479963086       -5.2520053142
 O       -17.0469323175       -3.0440685828       -5.8618207340
 C       -16.6413360694       -4.2372720486       -3.6985390275
 C       -16.9229301787       -2.9909554097       -2.8575798032
 C       -16.8476439274       -3.4067472726       -1.3416553301
 O       -17.7367456356       -4.1138028341       -0.9781114744
 C       -15.7387036087       -2.9493641753       -0.3190159303
 C       -14.3086698403       -3.0024506841       -1.1925107262
 O       -14.3298928767       -2.5683322380       -2.3258632582
 C       -13.1929027690       -3.6019390096       -0.5034325520
 C       -11.7780186841       -3.5008966465       -1.1268344031
 C       -11.2095501735       -4.9443395700       -1.4597483113
 O       -11.6594392058       -5.6506217826       -2.3541766688
 C        -9.8747132781       -5.3014760551       -0.5873428696
 C        -8.8361690950       -4.2103347403       -1.1083572376
 O        -8.7369554663       -3.1261293044       -0.5330987526
 C        -8.0118122044       -4.4801620233       -2.4142411168
 C        -6.7477063559       -3.6447167817       -2.5868687115
 C        -6.7539073815       -2.6979779626       -3.7623962636
 O        -7.4710463421       -2.9551679021       -4.7154617592
 C        -5.5528448091       -1.5659384613       -3.7817190606
 C        -4.2488407032       -2.3994323222       -4.3200598695
 O        -3.7188853588       -3.2453582362       -3.6850111480
 C        -3.7430812336       -1.9010420209       -5.7548561151
 C        -2.4225306351       -2.5514337578       -6.3959775740
 C        -1.2122702554       -1.6123151871       -6.1114675881
 O        -1.2913631432       -0.7083465580       -5.3318133900
 C         0.1356029578       -1.7901825675       -7.0926007503
 C        -0.2315551786       -1.7988088831       -8.7119639158
 O        -1.4120534167       -1.6700375732       -8.9844099984
 C         0.7456447536       -2.1844925132       -9.7509365975
 C         0.0755927355       -2.2163970526      -11.1682831854
 C         1.0654327346       -2.7346412428      -12.1709131534
 O         2.1585299536       -3.1473393768      -11.8834242978
 C         0.8324902258       -2.6450377032      -13.7542369581
 C         2.2022382877       -2.4021419175      -14.5943466880
 O         2.2240734157       -1.5431907044      -15.4947039971
 C         3.4134821362       -3.2594208777      -14.3896942671
 C         4.3192030893       -3.4480235824      -15.6680488973
 C         5.7791608566       -3.3443108829      -15.3065469153
 O         6.2061630070       -3.1732728107      -14.1665674128
 C         6.8885457863       -3.4902343490      -16.3934853246
 C         7.8068822598       -2.2562557141      -16.2571313894
 O         7.5391388989       -1.3370665461      -17.0171744309
 C         8.9247712974       -2.1497778008      -15.1341484948
 C         8.4920386912       -1.3363830439      -13.9206558274
 C         8.9281673483        0.1179304749      -13.9495530420
 O         9.4430729720        0.3695176608      -14.9952571122
 C         8.7728473731        1.1955998092      -12.6933877213
 C         7.7160477608        2.3109670405      -13.2165421145
 O         6.6931784499        2.6754690131      -12.6250730171
 C         8.0396654605        2.9458371882      -14.6384405914
 C         6.7435198615        3.4416179743      -15.4357282696
 C         5.8969325910        2.2426437593      -15.8200483823
 O         6.4032103637        1.3052372315      -16.3163116569
 C         4.3394660387        2.3439795816      -15.5583373003
 C         3.9052713702        2.9479739995      -16.9600108665
 O         3.9207062361        4.1246081043      -17.1326021974
 C         3.4670855053        1.8016690810      -18.0168868703
 C         3.0140834783        2.2488552163      -19.3486160338
 C         3.4906945256        1.2723263055      -20.5154247536
 O         3.2984819090        0.1324545987      -20.3057169786
 C         4.3504736462        1.8753839227      -21.7531279850
 C         5.8082670864        2.0743778001      -21.1515167104
 O         6.7387444552        1.2774899071      -21.2890186846
 C         6.2227733377        3.3685771186      -20.3786204573
 C         7.7136648437        3.6831306469      -20.5200683250
 C         8.5655465132        2.8134788725      -19.4855336121
 O         8.2689750327        2.6502119660      -18.3442038549
 C         9.9139492090        2.3110326923      -20.0036275255
 C         9.5673369722        0.9000971623      -20.4900446023
 O         9.2412446380        0.0531335111      -19.6581791508
 C         9.7564293155        0.4661496879      -21.8985660656
 C        10.5392685190        3.2990129032      -20.9620094955
 C        10.8075611274        2.1986865552      -18.7620931690
 C         4.2094282755        0.7100475702      -22.7493583755
 C         3.7298524583        3.1960609160      -22.2507207424
 C         3.6686805124        1.0279748785      -15.1930284075
 C         3.9745473571        3.3187448324      -14.3989567013
 C         8.5033463358        0.5441648253      -11.3537796561
 C        10.1439095495        1.8819394480      -12.5944952406
 C         7.6803904710       -4.8861830186      -15.9183537094
 C         6.2638659128       -3.5036879517      -17.7689155584
 C         0.4408267517       -4.0710504088      -14.2998652707
 C        -0.2120422104       -1.4776340181      -14.0996791380
 C         1.0218443874       -0.5144920121       -6.9565871162
 C         0.7199956835       -3.1334112642       -6.6804107017
 C        -5.8934765942       -0.4640181521       -4.7210382141
 C        -5.2822825339       -0.9349726404       -2.3988580008
 C        -9.9960122164       -5.0346581151        0.9513954957
 C        -9.4722956783       -6.8718136093       -0.7117808955
 C       -16.0587816095       -1.4350280575       -0.1293661104
 C       -15.8091336087       -3.7724194761        0.9459035010
 C       -17.4713913155       -6.5864740740       -5.4566299542
 C       -17.9424911956       -5.0068553742       -7.5015311025
 C       -23.8551669930       -4.5963744730       -3.4056380294
 C       -23.3491865547       -2.4401686504       -2.3525691238
 H       -22.6406657046       -3.8316415415        0.3330366939
 H       -22.7840058368       -5.4743174369        0.3576823159
 H       -24.0631512629       -4.6144523947       -0.3371758764
 H       -22.2110482900       -2.8118965664       -5.7852042576
 H       -22.4688019919       -4.4415627808       -5.4765396267
 H       -19.9275604892       -3.0814837535       -6.1013216699
 H       -20.4876205303       -4.4214743413       -7.0624395902
 H       -15.5181882464       -4.4589942994       -3.7936787543
 H       -17.0118140742       -5.1447620009       -3.2013700414
 H       -18.0158024142       -2.6706852555       -3.0094237994
 H       -16.2878726438       -2.1840944409       -3.0847333156
 H       -13.4666939997       -4.6413925563       -0.4152779682
 H       -13.1920749719       -3.1827359013        0.5414199007
 H       -11.1740398873       -2.8743120559       -0.5105628415
 H       -11.8749675458       -2.9097494380       -2.0582636813
 H        -8.7421006592       -4.2874817548       -3.1894126569
 H        -7.7883040363       -5.5078517613       -2.4306595363
 H        -5.9615913164       -4.3289640201       -2.8240718387
 H        -6.5068911050       -3.2782537524       -1.6372443918
 H        -3.6058893837       -0.8276873633       -5.6284508762
 H        -4.5109861615       -2.0679333795       -6.4872876577
 H        -2.3691527132       -2.6207312211       -7.4318478999
 H        -2.3099137684       -3.4688087636       -5.8203416734
 H         1.2322966746       -3.2336784474       -9.4912605340
 H         1.5641604501       -1.4477132542       -9.7411158725
 H        -0.1531758619       -1.1745460440      -11.4018821863
 H        -0.8611483497       -2.6848102430      -11.0807653774
 H         3.1398177325       -4.2161181692      -14.0113353992
 H         4.0365174836       -2.8373782852      -13.5781102995
 H         3.9889155529       -2.6961663114      -16.5063210458
 H         4.1217397462       -4.5037423163      -15.9215187284
 H         9.8681928628       -1.8684026260      -15.5694522772
 H         8.9797939737       -3.1744618949      -14.7505072246
 H         9.0108720196       -1.8302728486      -13.0912402128
 H         7.3584920617       -1.5050878648      -13.8874377252
 H         8.7050212412        2.3318588621      -15.1991964181
 H         8.6916446164        3.8120373093      -14.5809757095
 H         7.1237374444        3.8183581194      -16.3544835162
 H         6.3474104461        4.1376931123      -14.7755163818
 H         2.8115281914        1.0704441603      -17.5223799906
 H         4.4273088455        1.1258208065      -18.0405223239
 H         3.6251354035        3.1866756686      -19.4497511610
 H         1.9130491618        2.3904592713      -19.4119767343
 H         5.9688593303        3.1964169715      -19.3210089809
 H         5.6211375714        4.2211521127      -20.8018151315
 H         7.8005668112        4.7994719240      -20.2795774463
 H         7.9554025132        3.5511865282      -21.5694771121
 H        10.7335100480        0.1608323638      -22.0875494074
 H         9.2930311104        1.1472792225      -22.7029106941
 H         9.1070710677       -0.4158957664      -21.9430158406
 H        11.6287864451        3.3617052643      -21.1573734737
 H        10.3051526271        4.2976197732      -20.6949942656
 H        10.0267840911        3.1766561907      -22.0685916629
 H        11.7448745466        2.1661276864      -19.2597414523
 H        10.4958348710        1.4608350557      -17.9874966484
 H        10.8380408208        3.1791218015      -18.3755656128
 H         4.3771096324       -0.2359287030      -22.3328394793
 H         4.9296170430        0.8541913454      -23.4999761754
 H         3.1646813801        0.7300535976      -23.1950012994
 H         3.8519478864        3.3023683651      -23.2758379507
 H         3.9605079284        4.0480016131      -21.6513452987
 H         2.6757423508        3.0435476538      -22.2924264177
 H         3.6661482009        0.3324714183      -16.0734490685
 H         2.6738878195        1.1844330390      -14.8289891874
 H         4.3474654731        0.4585795313      -14.5382723037
 H         3.7730908198        4.2965122137      -14.8090668962
 H         4.6357018288        3.3828067805      -13.5339200477
 H         2.9981041454        3.0109381300      -13.9460045014
 H         8.2265795549        1.2996559531      -10.5940059190
 H         9.4082478483        0.1954337285      -10.9809302224
 H         7.6857064291       -0.2062934673      -11.3684992531
 H        10.9587138601        1.0717040520      -12.5961393573
 H        10.1806872366        2.4161804839      -11.5980546937
 H        10.4933617803        2.5292142534      -13.3504786080
 H         7.1699402478       -5.7212899762      -16.2466632190
 H         7.7863511535       -5.0381867525      -14.9073706337
 H         8.6018862236       -4.8678386544      -16.5057153452
 H         5.5532028059       -4.3330582374      -17.8112234154
 H         7.0248544848       -3.4646241754      -18.6094658284
 H         5.7690539133       -2.5701126028      -18.0047841215
 H        -0.6302378817       -4.1296236783      -14.6434949491
 H         0.5988953382       -4.9134815397      -13.5372467574
 H         1.0980975729       -4.3164326606      -15.1192330812
 H         0.0553457392       -0.5077299270      -13.7706893232
 H        -1.1833527378       -1.6387166512      -13.6902208706
 H        -0.1977361801       -1.3990928854      -15.1857549795
 H         1.5747946382       -0.2778860098       -7.9182319981
 H         1.7126220454       -0.6587263775       -6.0806173830
 H         0.2965144197        0.2607152319       -6.9123804681
 H        -0.0824688254       -3.8333428613       -6.8696280400
 H         0.9720776521       -3.2353007868       -5.6296662400
 H         1.5843302029       -3.4296229165       -7.2608684842
 H        -6.2334370575       -0.8738530480       -5.6679100607
 H        -5.0238259557        0.1402194391       -4.9702272559
 H        -6.5690521818        0.1861134497       -4.2882435425
 H        -6.2470016467       -0.8696653718       -1.9432736560
 H        -4.8088142915        0.0127913101       -2.4384176800
 H        -4.5903420458       -1.5107168427       -1.8672260011
 H       -10.5643443922       -5.9380004653        1.2728458742
 H       -10.4834272270       -4.0838350911        1.1524242328
 H        -9.0314543866       -5.0186723080        1.5152555492
 H       -10.2967849293       -7.4343190207       -0.3915352913
 H        -8.5694434840       -7.1357483099       -0.1456757458
 H        -9.2632816610       -7.0715125001       -1.8016498698
 H       -16.9955836402       -1.1206620463        0.4130015536
 H       -16.2092138445       -0.8943116733       -1.0600811299
 H       -15.1778235912       -0.9821950786        0.3103178929
 H       -15.6749221329       -3.0411862309        1.8268653748
 H       -14.9837517564       -4.5714253661        0.9199063008
 H       -16.8632701133       -4.1659684136        1.2038763508
 H       -18.0154774778       -7.4397290984       -5.8674456958
 H       -17.5149326388       -6.6894346059       -4.3891866922
 H       -16.4756301357       -6.8533108157       -5.7261392465
 H       -18.3481392230       -4.1158521287       -7.8523857959
 H       -18.5808446636       -5.7150678663       -8.0475158419
 H       -16.8968152342       -5.1093764472       -7.7178480230
 H       -23.6556262415       -5.6149535615       -3.8962161504
 H       -24.3690414669       -4.0629284079       -4.2007219735
 H       -24.6203579974       -4.7304581606       -2.6037882285
 H       -24.0377312207       -2.6535670168       -1.6040722432
 H       -23.8171656184       -1.9338352226       -3.1580365757
 H       -22.6367099510       -1.7506618052       -1.9229512945
 Na      -19.4005741153       -4.7404444943       -2.0086472169
 Na        8.5547437560        0.4754561499      -17.4154252083
