232

 C       -22.9439838001       -4.2598213136       -0.0743640907
 C       -22.4708778282       -4.6996493318       -1.4224734372
 O       -21.6789604285       -5.5779037780       -1.5498542586
 C       -22.9904215755       -3.8299331313       -2.6799279977
 C       -21.7236591434       -3.7277767809       -3.6527474023
 O       -20.6840648638       -3.3367552796       -3.1710341468
 C       -21.7656546374       -4.1443543335       -5.0973225509
 C       -20.4280173141       -4.1888303447       -5.8543527233
 C       -19.3638524823       -5.1335463718       -5.2550856473
 O       -19.7286188192       -5.8821340917       -4.3686054686
 C       -17.8349306490       -5.1356173660       -5.8727820502
 C       -17.1072663275       -3.8902905847       -5.1609286632
 O       -16.9863703828       -2.8665166392       -5.8408972465
 C       -16.4948782773       -4.0329320195       -3.7904475532
 C       -16.9186283161       -2.9079535857       -2.8063697978
 C       -16.7815848234       -3.3437379592       -1.3358798218
 O       -17.6384794138       -4.1087284798       -0.9162489554
 C       -15.6823560140       -2.7282068202       -0.3529089419
 C       -14.2742988419       -2.8199937538       -1.1643124187
 O       -14.0758208946       -2.1964450117       -2.2081937940
 C       -13.0581379778       -3.7184108549       -0.7115702774
 C       -11.7802626768       -3.4312379989       -1.5404969104
 C       -10.9774689772       -4.7463576256       -1.6012872466
 O       -11.2946155791       -5.5120406180       -2.4894825225
 C        -9.7386967582       -5.0913024712       -0.6486821521
 C        -8.6690111922       -3.9902051737       -1.0792715695
 O        -8.6484663375       -2.9586901858       -0.4759049524
 C        -7.7170980056       -4.2972363465       -2.2855434483
 C        -6.4384729161       -3.4124974866       -2.4202111639
 C        -6.3772348059       -2.7013555602       -3.8072153535
 O        -7.1356976059       -3.0698627540       -4.6850819003
 C        -5.2979437902       -1.6059889337       -4.0976420749
 C        -4.1607568234       -2.4365220992       -4.7854454730
 O        -3.5659550668       -3.2238250584       -4.0306149494
 C        -3.7757792675       -2.2428851839       -6.2335321937
 C        -2.3110011887       -2.6511597568       -6.6021135275
 C        -1.2556672038       -1.4606501633       -6.5324485937
 O        -1.2122393985       -0.5404172415       -5.7490163869
 C        -0.0641332238       -1.6304732599       -7.5568827908
 C        -0.6458097649       -1.6050764327       -8.9963210348
 O        -1.8027806025       -1.2912405767       -9.3274201738
 C         0.2831936161       -2.2906772617       -9.9643737896
 C        -0.0888257659       -2.1183270259      -11.5255764011
 C         1.0137829668       -2.7431298179      -12.3826299316
 O         2.1347705754       -2.8779528658      -11.8830518217
 C         0.5520183594       -2.8845224281      -13.8976577565
 C         1.8488553580       -2.6595547804      -14.8472437675
 O         1.9143135247       -1.7637863481      -15.6602005570
 C         3.0651866873       -3.6107412914      -14.6529818735
 C         4.1473224177       -3.3137413841      -15.7582077794
 C         5.6060776443       -3.2448748430      -15.1630990077
 O         5.8337103492       -3.2733934646      -13.9840845271
 C         6.8329752237       -3.4733842079      -16.1579398472
 C         8.0433500512       -2.4817127703      -15.9117148235
 O         8.3512762870       -1.6364242328      -16.7360349429
 C         8.7254430464       -2.4317181636      -14.5399736604
 C         8.3397678587       -1.1821762301      -13.8285900327
 C         9.1788112530        0.0745355291      -14.0561581918
 O         9.9920213281        0.2741343252      -14.9287868328
 C         9.0351535573        1.2272255034      -12.9809947263
 C         8.1187360938        2.5181983836      -13.4343182223
 O         7.2076356649        2.8116562945      -12.7443057185
 C         8.2421560627        3.3700591485      -14.8116374657
 C         6.7412222512        3.7309691348      -15.3335197136
 C         5.9799900521        2.3955214372      -15.6584477256
 O         6.6148221804        1.3255557403      -15.8151525583
 C         4.3986080684        2.2929207680      -15.4120680880
 C         3.8333616355        2.5982481685      -16.7955586671
 O         4.1133532646        3.7459832989      -17.1736441088
 C         3.0322227609        1.6264599842      -17.7280918261
 C         2.9695555271        2.2076848305      -19.0975251163
 C         3.2885414386        1.1553469416      -20.2622955460
 O         2.8380501454        0.0001941055      -20.2032688594
 C         4.1764386388        1.5206807313      -21.5720387770
 C         5.6882499632        1.9582101113      -21.0441258135
 O         6.6513241801        1.3621695987      -21.4482257370
 C         6.0689001954        3.1920713905      -20.0182326369
 C         7.4919329612        3.6646763042      -20.1551014278
 C         8.4197666750        2.8365818516      -19.2093525879
 O         8.0585781648        2.6196861981      -18.0434421686
 C         9.7501758439        2.3403837984      -19.7249730051
 C         9.3821614540        0.8341814387      -20.2562216438
 O         8.9967184050        0.0599916453      -19.3838741034
 C         9.3823625743        0.4562359349      -21.7002149374
 C        10.3580637015        3.2664921722      -20.7388427160
 C        10.8143344335        2.2168124229      -18.5336054258
 C         4.2656401419        0.2894325643      -22.4641773066
 C         3.6480101838        2.7547268391      -22.4369375403
 C         4.0664880378        0.8428712257      -15.0093296680
 C         3.8632987349        3.3957942361      -14.3766039144
 C         8.4655746316        0.7508971862      -11.5987136973
 C        10.4634359132        1.6357163748      -12.8187316857
 C         7.3069162603       -4.9134247317      -15.8311603191
 C         6.5364212754       -3.5055175458      -17.6712963879
 C         0.0219534683       -4.4065853824      -14.1821939713
 C        -0.5635850519       -1.9312454967      -14.2616607084
 C         0.7615577580       -0.2812669640       -7.5330438401
 C         0.7302695021       -2.9101261250       -7.2060670883
 C        -5.7886681605       -0.4542337000       -4.9468302280
 C        -4.6816546741       -1.0517407727       -2.7581270893
 C       -10.1316194707       -4.7762485293        0.8598667699
 C        -9.1358941637       -6.4538243737       -0.8084239945
 C       -15.9171872881       -1.2460354858       -0.0939306566
 C       -15.8335257791       -3.4079751575        1.1149932661
 C       -17.0865553071       -6.3892943198       -5.7007524190
 C       -17.7072988583       -4.8159820869       -7.3902948691
 C       -24.2593563373       -4.5863076029       -3.3136479342
 C       -23.5279419346       -2.4657070159       -2.3563724535
 H       -22.6211733515       -3.2820966141        0.2853406968
 H       -22.6053225676       -4.9709159849        0.5899363107
 H       -24.0230656385       -4.2551694266        0.0198019592
 H       -22.4317955654       -3.7439748935       -5.7969207885
 H       -22.1004693677       -5.1806360610       -4.9683022615
 H       -19.9820458207       -3.1851935410       -5.9931968757
 H       -20.6439271873       -4.5377977511       -6.8477274462
 H       -15.3715378547       -4.1946625506       -3.8403639768
 H       -16.7784639311       -5.0670280963       -3.4551508256
 H       -17.9349083178       -2.7347544547       -2.9245391663
 H       -16.2819227531       -1.9658762350       -2.9633147556
 H       -13.2589296458       -4.7851581939       -0.9392292191
 H       -12.8180334796       -3.7918340352        0.3228247639
 H       -11.1715771744       -2.5185797146       -1.2905696937
 H       -12.0853340494       -3.1498851597       -2.5043349570
 H        -8.2593807745       -4.0369886538       -3.1555040223
 H        -7.4817683381       -5.3447043865       -2.3621705571
 H        -5.6486649225       -4.0976374062       -2.2881783225
 H        -6.3085571586       -2.7400465271       -1.6105903956
 H        -3.9256541579       -1.2162088426       -6.5581383623
 H        -4.5168045576       -2.7832449937       -6.8619574727
 H        -2.2406028540       -3.0908428090       -7.5919160546
 H        -1.8409600970       -3.2420776629       -5.8633766403
 H         0.3971845103       -3.3697518783       -9.7287946259
 H         1.3509504407       -1.9203963536      -10.0097396357
 H        -0.0832967488       -1.0859758005      -11.7562402569
 H        -1.0959928103       -2.3884494569      -11.7926185407
 H         2.7691392476       -4.6382955980      -14.8233905059
 H         3.5378697237       -3.6280623806      -13.6747233042
 H         3.9191013532       -2.2669788732      -16.0114555580
 H         4.1276060462       -4.2315888352      -16.4351496695
 H         9.7652854007       -2.3833507259      -14.7692857163
 H         8.4026286845       -3.3423613988      -14.0041487045
 H         8.5305608624       -1.4095568028      -12.7597512242
 H         7.2690168844       -0.8352500115      -13.9972848917
 H         8.8129333439        2.8836001789      -15.6040711409
 H         8.7314861742        4.2574211344      -14.5136706688
 H         6.7629387552        4.2608587131      -16.2441448101
 H         6.2780688222        4.2784351700      -14.5167351356
 H         2.0267063613        1.2848526049      -17.2929820297
 H         3.5476141056        0.6797176363      -17.6879281652
 H         3.6872371980        3.0698171681      -19.1049755828
 H         1.9110110370        2.4943259168      -19.0449653024
 H         5.9247843333        3.0577552969      -18.9315501334
 H         5.3275845810        3.9531407227      -20.3883922303
 H         7.5456880040        4.7585938124      -19.9433979718
 H         7.8413215226        3.5505291630      -21.2078450425
 H        10.4769191572        0.4185640208      -22.0778981763
 H         8.9144559218        1.2247840955      -22.2653834242
 H         8.7780239779       -0.4577663098      -21.7824937585
 H        11.4377172386        3.3605522331      -20.4235945373
 H         9.9288532545        4.3548713011      -20.5878973319
 H        10.3215673103        2.9903968461      -21.7191120416
 H        11.6615534431        1.7122891023      -18.9204903564
 H        10.3661796830        1.4720678835      -17.9491591096
 H        10.9213179233        3.1962564338      -18.1114360224
 H         4.7426914307       -0.4799775816      -21.8490401187
 H         4.9289328760        0.4002983625      -23.3332031801
 H         3.3398505199       -0.0604352911      -22.6820023962
 H         3.9824861950        3.7278167093      -22.0789911472
 H         2.6007374344        2.6766483451      -22.4829083236
 H         3.9530931094        2.5819087811      -23.4504789852
 H         4.2769997053        0.0425312189      -15.6835477321
 H         2.9835345957        0.7007793247      -14.7178413895
 H         4.6935523881        0.8064613460      -14.0992075930
 H         3.5701073501        4.3224368325      -14.8733090398
 H         4.5269838135        3.5281679706      -13.5245938373
 H         2.9015866602        3.1382858609      -14.0423423220
 H         8.4416569081        1.5241904229      -10.8387020977
 H         9.0866796265       -0.1564145305      -11.2976543570
 H         7.4716870010        0.4324796053      -11.6643132432
 H        11.1070578503        0.9131614852      -12.3529566457
 H        10.5261369367        2.5750306502      -12.2195391643
 H        10.8631133660        1.8944592881      -13.8939364531
 H         6.4471115390       -5.5352528365      -15.8424941801
 H         7.6746751701       -4.8740588103      -14.8317911132
 H         7.9720964677       -5.2993211659      -16.5185148311
 H         5.7642018118       -4.2699478941      -17.9627626447
 H         7.4036520233       -3.8843875249      -18.2386099979
 H         6.1803820709       -2.5186348273      -18.0895487106
 H        -0.1912785563       -4.9184314279      -13.2381823470
 H         0.7082070756       -4.9443898309      -14.8581672988
 H        -1.0226178448       -4.4363741783      -14.6431405237
 H        -0.2295894719       -0.9580830152      -13.9388103435
 H        -1.5245132297       -2.1780950787      -13.8075223433
 H        -0.6423558214       -1.8842288160      -15.3193695656
 H         1.7483450743       -0.5124846838       -7.9925592737
 H         0.8745744604       -0.0010601797       -6.4952884898
 H         0.2256961546        0.5543728413       -8.1543632146
 H         0.0895305504       -3.7318224269       -7.2614892208
 H         1.0450986073       -2.9327626997       -6.1643134229
 H         1.5126767046       -3.0625160420       -7.9083753008
 H        -6.4534154515       -0.8019282468       -5.6728827482
 H        -4.9105359736       -0.0032308995       -5.3603235348
 H        -6.3612241699        0.3254644622       -4.4176443977
 H        -5.4380851125       -0.8007736603       -2.0236561829
 H        -4.1604716886       -0.1636845043       -3.0030946263
 H        -4.0409495429       -1.8567512364       -2.4109175477
 H       -11.1716298649       -5.0131411185        0.9244609658
 H       -10.0296919497       -3.6917715824        1.0187411303
 H        -9.4041473869       -5.2403404807        1.5607731980
 H        -9.9502619914       -7.2101789078       -0.6364732738
 H        -8.4175221641       -6.4593598573       -0.0162586645
 H        -8.7099415224       -6.7030378244       -1.7397773658
 H       -16.9614278376       -1.0519339649        0.0469414639
 H       -15.5603293963       -0.5192267859       -0.8895043905
 H       -15.3987095323       -0.7969639149        0.7840551584
 H       -14.8666762828       -3.3347182185        1.7347773493
 H       -16.1298433674       -4.5405034246        1.2135932338
 H       -16.7266860214       -2.8706355042        1.6154913914
 H       -17.6217874968       -7.2533959638       -6.1337609387
 H       -16.8516555639       -6.6660157934       -4.6908582045
 H       -16.1015894084       -6.2901945858       -6.1394419589
 H       -18.3512707965       -3.9494291498       -7.6231675799
 H       -17.9201303354       -5.6862758055       -7.9636929567
 H       -16.7081361896       -4.6492824320       -7.6892642818
 H       -23.9868645181       -5.5392397338       -3.7081837111
 H       -24.8656779223       -3.9745864814       -4.0709960820
 H       -25.0577564447       -4.8485830797       -2.5635400535
 H       -24.3974479022       -2.5639131915       -1.7472386485
 H       -23.9034732930       -2.0211732724       -3.2444280293
 H       -22.8159011721       -1.9128742985       -1.8576845442
 Na      -19.3747203468       -4.8077733779       -2.2401640221
 Na        8.6606071575        0.4249676101      -17.0828596213
