232

 C       -23.1082247508       -4.2978683713       -0.0112857032
 C       -22.5447730914       -4.6010392058       -1.3489883429
 O       -21.6247247644       -5.3755377113       -1.5294136510
 C       -23.0347470755       -3.8286120124       -2.6958266102
 C       -21.7187274658       -3.8401069387       -3.6328837118
 O       -20.7255119118       -3.3285879562       -3.1052907279
 C       -21.6985361264       -4.2555426514       -5.1054787441
 C       -20.3877674967       -4.2398192548       -5.8916583924
 C       -19.2684428813       -5.1941876645       -5.3294251639
 O       -19.5006952473       -5.9740144600       -4.4211097307
 C       -17.8501705041       -5.1286737914       -5.9428231573
 C       -17.1314359453       -3.8504029652       -5.2018697509
 O       -17.0770880967       -2.7907612101       -5.7347893773
 C       -16.5146697767       -4.0332830946       -3.7682983368
 C       -16.9046131048       -2.8626565738       -2.8707359875
 C       -16.7130475691       -3.2344913974       -1.3130019925
 O       -17.5231719308       -4.0988688766       -0.8662455362
 C       -15.6946393922       -2.6700731649       -0.3536279359
 C       -14.2759599725       -2.8044136565       -1.1312949318
 O       -14.2046924144       -2.1350793258       -2.1455831552
 C       -13.1036066137       -3.7885153743       -0.7005744810
 C       -11.8487553982       -3.5502809632       -1.5123880674
 C       -10.8829282431       -4.7230445213       -1.6354729300
 O       -11.1658730463       -5.5995743148       -2.4451628890
 C        -9.6909502676       -4.9966052466       -0.6476786347
 C        -8.4872324981       -3.9150736028       -1.0461587790
 O        -8.5121407334       -2.8113776825       -0.5554406711
 C        -7.6179586593       -4.2512054990       -2.2621266869
 C        -6.3614951590       -3.3295519004       -2.4225140904
 C        -6.3245501655       -2.6103400657       -3.7832805322
 O        -7.0037273025       -3.0337851173       -4.7225365820
 C        -5.1677553100       -1.5610499090       -4.0850652845
 C        -4.0164349892       -2.4566080272       -4.7570408227
 O        -3.5188575278       -3.3879494126       -4.1836536975
 C        -3.7714625097       -2.3095648375       -6.2750990963
 C        -2.3204395081       -2.5747563452       -6.6702489589
 C        -1.2393386097       -1.4001512829       -6.6406798266
 O        -1.3192337902       -0.5156010317       -5.8534951425
 C        -0.1650407909       -1.5464382680       -7.7342816241
 C        -0.8082710623       -1.7430554940       -9.1376126762
 O        -1.8890047305       -1.2428584604       -9.5309754170
 C         0.1822155901       -2.4070148038      -10.0357878493
 C        -0.0854274689       -2.0542982459      -11.5134963415
 C         0.9699122627       -2.5998776973      -12.4129228081
 O         2.0876510964       -2.9317382082      -12.0219779682
 C         0.5943987364       -2.8969917857      -13.8698765206
 C         1.8510755476       -2.7215254333      -14.8210557403
 O         1.7666411742       -1.8242816019      -15.6016153278
 C         3.0273914550       -3.6352825125      -14.6689285823
 C         4.0798321287       -3.2994898937      -15.7057357608
 C         5.5385450614       -3.3181716841      -15.1764840479
 O         5.7625902000       -3.1942115566      -13.9846452772
 C         6.8405128099       -3.5359477011      -16.1246914976
 C         8.0545877776       -2.4591075970      -15.8247253259
 O         8.2698237173       -1.8089064795      -16.8104059561
 C         8.6721250945       -2.4309471884      -14.4534945876
 C         8.1672345825       -1.1050167454      -13.7709357534
 C         9.1114123546        0.0813751029      -13.9716499860
 O         9.8450044951        0.1538427499      -14.9892391650
 C         9.1715721763        1.2890334070      -12.9820613922
 C         8.0772302001        2.4168888630      -13.5707505444
 O         7.2068891121        2.7690449557      -12.7589170575
 C         8.2506248205        3.1635391548      -14.9037597084
 C         6.8194708814        3.6227344657      -15.3389064615
 C         5.9660065213        2.3219267944      -15.4346369671
 O         6.5874424597        1.2499712424      -15.7294109501
 C         4.4644772670        2.2805569955      -15.2638897639
 C         3.9120664325        2.7073475980      -16.8261356225
 O         4.2289283697        3.7669255922      -17.3549130915
 C         3.1207545920        1.6888939637      -17.5966994921
 C         2.8646640309        2.1223630344      -19.1776608080
 C         3.2648935706        1.1096859182      -20.2238444356
 O         2.8189755530       -0.0105672647      -20.1294508214
 C         4.2197237967        1.5246855133      -21.4510799788
 C         5.6805123020        1.9646068609      -21.0931799555
 O         6.6207030541        1.3342458525      -21.4507423981
 C         5.8758405418        3.2085507677      -20.2048265216
 C         7.3553480745        3.5874950456      -20.0996489379
 C         8.3248758591        2.9171839543      -19.0737321424
 O         7.8931364685        2.7031692542      -17.9455014782
 C         9.7344421686        2.3826874845      -19.6826093924
 C         9.3034454769        0.8283999449      -20.0867482141
 O         9.0005804276        0.0264586125      -19.2784526167
 C         9.4242417609        0.3960616752      -21.5677210644
 C        10.3347996678        3.2600890772      -20.7840350715
 C        10.9687543492        2.2799330437      -18.6159222157
 C         4.3828612370        0.2871104463      -22.3584902144
 C         3.6658772119        2.7046004222      -22.3025209726
 C         4.1447118146        0.8415263554      -14.8394027444
 C         3.8797464696        3.2497613575      -14.2674343161
 C         8.5430888355        0.9683577905      -11.5944928538
 C        10.6574349574        1.7963977810      -12.8310035891
 C         7.2266495423       -5.0182424609      -15.7522189091
 C         6.5752506865       -3.4796715105      -17.7059134078
 C         0.1651455798       -4.4098216981      -14.0544275914
 C        -0.5759545517       -1.9766592614      -14.3462048943
 C         0.8049026529       -0.3442288251       -7.5674151570
 C         0.6934229840       -2.7360862990       -7.2649114210
 C        -5.7447218129       -0.5126297662       -5.0949928923
 C        -4.5839614346       -0.9385866587       -2.7751006924
 C       -10.2274317051       -4.7826279299        0.8149018568
 C        -9.2472155539       -6.4750099427       -0.8814708796
 C       -16.0176633778       -1.1729897396       -0.1917243079
 C       -15.7939543157       -3.3955307669        0.9456396344
 C       -16.9708730369       -6.3839976822       -5.6817798220
 C       -17.9684457863       -4.6916770855       -7.4441729243
 C       -24.1004928852       -4.7536854546       -3.3910411447
 C       -23.4610465786       -2.3424146785       -2.3416619529
 H       -22.8103665357       -3.2684127454        0.2999526159
 H       -22.6566288645       -5.0172471670        0.7310638732
 H       -24.1836306520       -4.2838703203        0.0956068924
 H       -22.2964677632       -3.5141428198       -5.6770741464
 H       -22.2760848492       -5.1432905159       -5.1764499691
 H       -20.0882271540       -3.2339080304       -5.8822974022
 H       -20.5141765126       -4.5179308063       -6.9274840506
 H       -15.4429977843       -4.0278646198       -3.8612515149
 H       -16.6434583410       -5.1255192704       -3.3993792921
 H       -17.9230499835       -2.5478223174       -3.0181252410
 H       -16.2408893125       -2.0810545934       -3.0992392784
 H       -13.4203005793       -4.8369355698       -0.8170233385
 H       -12.7942838399       -3.8082738589        0.3192555297
 H       -11.2803640764       -2.7444070159       -1.0390060120
 H       -12.0776582413       -3.0688578739       -2.4860805202
 H        -8.1953072423       -4.1553402525       -3.1298637244
 H        -7.3298169366       -5.3018886587       -2.1701337832
 H        -5.4936972094       -3.9834365125       -2.1978960545
 H        -6.3158548397       -2.5627323237       -1.6044865946
 H        -4.1061362480       -1.3655384271       -6.7089225821
 H        -4.4073221964       -3.0442147974       -6.8150788944
 H        -2.3016073617       -2.8145045066       -7.7118000952
 H        -1.8900302517       -3.3720645784       -6.1472623963
 H         0.2851401936       -3.4234566402       -9.9917201045
 H         1.2253875298       -2.0584925309       -9.8358664308
 H        -0.2451227081       -1.0181127427      -11.7498252920
 H        -1.0660036319       -2.4718004791      -11.8019250322
 H         2.7671790855       -4.7165639290      -14.8018070900
 H         3.5250569828       -3.6108290878      -13.6981517543
 H         3.9207384894       -2.2735590826      -15.8968395523
 H         4.0714105070       -4.1376573433      -16.4443381100
 H         9.7301309788       -2.2974306512      -14.7955508848
 H         8.4612915927       -3.3496972691      -13.9811630339
 H         8.0421459429       -1.2998276073      -12.6759545524
 H         7.3104972139       -0.6774468457      -14.1931002715
 H         8.6618811721        2.3926267204      -15.6005228500
 H         8.8818661967        4.0114110901      -14.7732587270
 H         6.8056455861        3.9924265727      -16.4011590896
 H         6.5324075163        4.3689038055      -14.5735011754
 H         2.2713230661        1.3520381447      -17.0741283379
 H         3.7185730521        0.8228019463      -17.6014880870
 H         3.4662397111        3.0179444448      -19.3732351106
 H         1.7877128542        2.3225302122      -19.1240029304
 H         5.6617966912        2.9532673039      -19.1056620906
 H         5.1418294515        3.9520083235      -20.5110033455
 H         7.4988078193        4.6249252474      -19.9730556482
 H         7.7891192729        3.3715080907      -21.0907797768
 H        10.5579082981        0.2328190739      -21.6854081274
 H         9.1435642167        1.0227387881      -22.4344564489
 H         8.8846717428       -0.5690470558      -21.5228795219
 H        11.3599569984        3.4498711809      -20.5661583351
 H         9.8145539972        4.1676609428      -20.8505013021
 H        10.2697896050        2.7065816888      -21.7642673258
 H        11.7776030740        1.9206910303      -19.1726231306
 H        10.8162242773        1.5404494095      -17.8212316440
 H        11.0075907134        3.2995526907      -18.3244467179
 H         4.7909215521       -0.5413817255      -21.7309561608
 H         5.0638143764        0.3937233756      -23.1666679098
 H         3.3664012971       -0.0332943899      -22.6745641830
 H         3.3869063312        3.4797258652      -21.5724733896
 H         2.7882027353        2.3713786734      -22.9286119596
 H         4.4002871921        3.0444880258      -23.0579591506
 H         4.3498013822        0.1006157450      -15.6473276068
 H         3.0504169450        0.7091434354      -14.6224018122
 H         4.7130101049        0.6524301511      -13.9165974228
 H         3.7511591432        4.2999187462      -14.5885149247
 H         4.3947484632        3.1613864770      -13.3241136938
 H         2.8335664504        2.9723206679      -14.1658110798
 H         8.2552271327        1.8633905220      -11.0581685665
 H         9.2725348127        0.3368683795      -11.0580960162
 H         7.6051910285        0.3429180687      -11.6302742477
 H        11.4053168385        0.9729123758      -12.8509699854
 H        10.8273879867        2.3669079181      -11.9028578176
 H        10.8771844089        2.4722684552      -13.6797496305
 H         6.4068885746       -5.5362657213      -16.2571138345
 H         7.2074249856       -5.2231226243      -14.6712417894
 H         8.1318704499       -5.3496013213      -16.1972037455
 H         5.9810819992       -4.2282066149      -18.1922020148
 H         7.4939583796       -3.6279353469      -18.2016212145
 H         6.1550102145       -2.4610957763      -17.9666815248
 H         0.1810576343       -5.0655639828      -13.1671363004
 H         0.6027929299       -4.8420378094      -14.9446713570
 H        -0.9432681434       -4.3473133033      -14.2395819900
 H        -0.4516445096       -1.0106983348      -13.8384657606
 H        -1.5355380636       -2.4229473014      -14.1409346440
 H        -0.5237238069       -1.8030427368      -15.3994672962
 H         1.5926007715       -0.4979205635       -8.2937206949
 H         1.2109763263       -0.3318386926       -6.5023784542
 H         0.2023066501        0.5976882309       -7.8160590540
 H         0.1243643199       -3.7091000352       -7.3162076173
 H         0.9463489739       -2.6353384607       -6.2562665687
 H         1.5237065316       -2.8174398876       -7.9468266855
 H        -6.4030939708       -1.0708339609       -5.7405885558
 H        -5.0128622512        0.0117270809       -5.5872510833
 H        -6.4193801619        0.1782449551       -4.6264855901
 H        -5.2858029261       -0.4823367069       -2.1812742613
 H        -3.9922330579       -0.1604543426       -3.2030473792
 H        -4.0472997359       -1.7067919767       -2.2248574233
 H       -11.1038432852       -5.4386689885        0.8607925875
 H       -10.5966850779       -3.7233816377        1.0304634369
 H        -9.4352821890       -5.0001166183        1.4413303018
 H       -10.1634386059       -7.0960632952       -0.8755760273
 H        -8.5112769714       -6.7844239066       -0.1261553338
 H        -8.8589674411       -6.5967531628       -1.8739769549
 H       -17.0350867437       -1.0921520171        0.2504150544
 H       -15.9736019757       -0.5680803493       -1.0399332753
 H       -15.4116686354       -0.6358900645        0.4979151639
 H       -15.0037135767       -2.9875279111        1.5791247375
 H       -15.5035402926       -4.4578201126        0.8859108636
 H       -16.7902848770       -3.3940113191        1.3971777990
 H       -17.4771026590       -7.2439931970       -5.8603254534
 H       -16.6063578920       -6.4942383449       -4.6447912663
 H       -16.0200223999       -6.3225451061       -6.2423046397
 H       -18.8257699202       -3.9652733095       -7.6510727380
 H       -17.9875733656       -5.5833367767       -7.9578183223
 H       -17.0648510767       -4.2726080150       -7.8809998166
 H       -23.7494760239       -5.8450518905       -3.6281754694
 H       -24.6242923391       -4.2984687825       -4.1962680185
 H       -24.9417649415       -4.9339496558       -2.6860014051
 H       -24.2574726489       -2.2422595901       -1.6392951643
 H       -23.7727828703       -1.8135180179       -3.1961298666
 H       -22.5129114065       -1.9925182238       -1.8754560593
 Na      -19.4263481264       -4.8392129626       -2.0331725605
 Na        8.6511381650        0.4617078293      -17.0800652341
