232

 C       -17.5694268202      -14.0516026660       -0.2731214987
 C       -16.7428149075      -13.9667536392       -1.5440010976
 O       -16.9437130017      -13.1036379853       -2.3688601545
 C       -15.5522241082      -15.0209850387       -1.7463109287
 C       -14.9733830516      -15.1996346428       -3.1841726582
 O       -15.7344418679      -15.0966916437       -4.1333346886
 C       -13.4425506824      -15.6083658130       -3.4036559041
 C       -13.1503162289      -15.5027281048       -4.9255988412
 C       -13.4930004472      -13.9404967298       -5.3787765480
 O       -13.7283102611      -13.1095323838       -4.5795169175
 C       -13.5862620888      -13.7600982425       -6.9280803243
 C       -14.4966375093      -12.4707723424       -7.0420563910
 O       -15.6804068625      -12.7457495635       -6.7977740788
 C       -14.1097331166      -11.0121429567       -7.4607790661
 C       -15.3578837012      -10.1280076299       -7.7634722731
 C       -15.9577599556       -9.5495708216       -6.4880585859
 O       -16.2955343751      -10.2932155948       -5.5929803325
 C       -16.2820428546       -7.9771037248       -6.4724867855
 C       -14.7782467956       -7.3851978903       -6.6121642444
 O       -13.8992007017       -8.1590520173       -6.4763213685
 C       -14.7104495165       -5.9145847232       -6.8834887735
 C       -13.3531198476       -5.2684242145       -7.2773469526
 C       -13.2371303175       -3.7721706897       -7.2572296671
 O       -13.8954450530       -3.1853570225       -6.3701960434
 C       -12.2154500022       -3.0159841126       -8.0552403327
 C       -10.8569723751       -3.0114551420       -7.2321426089
 O       -10.6647527505       -3.9779061116       -6.5045228244
 C        -9.6862072743       -2.0238159280       -7.5898399392
 C        -9.7429565501       -0.9744336273       -6.4112566038
 C        -9.9818368942        0.5785587001       -6.8719252806
 O       -10.3200680291        0.9821965668       -7.9614605836
 C        -9.2871982266        1.4609680066       -5.8259838743
 C        -7.6993160968        1.6185943644       -6.4103105937
 O        -6.8460815812        1.0242967620       -5.7302248730
 C        -7.4119665073        2.7635782720       -7.4271471359
 C        -5.9087028950        2.6127994634       -8.1027980947
 C        -5.6727262521        3.6095600659       -9.2134933669
 O        -5.7629440465        4.8443432816       -9.0006377239
 C        -5.3865801848        3.1403080693      -10.6568069429
 C        -4.0192376518        2.2210821021      -10.6567166062
 O        -4.1293133974        1.1095610233      -11.1420927637
 C        -2.7373515309        2.6245133858      -10.0517666143
 C        -1.7674834341        1.4657317077      -10.1408618731
 C        -0.4163465116        2.0748879290       -9.7808681824
 O        -0.1827020562        3.2095113271      -10.2949187737
 C         0.7182061634        1.3506102816       -9.0101667602
 C         2.0993663289        2.0173992888       -9.2062619819
 O         2.9484348571        1.3682872597       -9.8182996008
 C         2.1957517657        3.4993910597       -8.8228114333
 C         3.2598068822        4.1630436931       -9.7198867620
 C         2.9224861504        5.5574257728      -10.4380556694
 O         1.8003208979        6.0000691421      -10.5193883526
 C         4.0996995466        6.0815141745      -11.5270501189
 C         3.9985353024        5.0142922514      -12.6710684806
 O         4.7581829160        4.1117103405      -12.7242907044
 C         2.8609449839        5.1384362529      -13.6330393616
 C         3.1608572591        5.9392475617      -14.9368472613
 C         3.5517017292        5.0926810913      -16.1648713715
 O         3.9518072771        3.9458269359      -16.0862487161
 C         3.5008867054        5.7544459867      -17.5448218494
 C         4.9373474378        5.9507023870      -18.1638961189
 O         5.2790040280        5.5560956667      -19.2360307792
 C         6.0276153570        6.7904106939      -17.3581794506
 C         7.4338269635        6.0296491024      -17.3976650902
 C         7.3995525333        4.6950203049      -16.7440465212
 O         6.5824433248        4.4461421057      -15.8795328525
 C         8.5095163309        3.7506085522      -17.0554439230
 C         9.8042927694        4.4317397892      -16.4315774189
 O         9.7125645488        5.4201685419      -15.7323431162
 C        11.1989184149        3.8643202500      -16.7680847966
 C        12.0403543301        3.3317268013      -15.4953461813
 C        11.7905595411        1.8904925694      -15.1525891855
 O        11.1949000924        1.1204806729      -15.8583655582
 C        12.2136886630        1.1851157535      -13.7985251967
 C        11.0755216778        0.1098821557      -13.3804539539
 O        11.4087876262       -1.0481839493      -13.4363422797
 C         9.6387054948        0.5309443967      -12.9623242365
 C         8.4774308742       -0.3992109273      -13.2248146028
 C         7.1130805259        0.1910860864      -13.2202857404
 O         6.8197340482        1.3589288971      -13.0748514854
 C         5.8504055676       -0.8285132540      -13.2135565032
 C         4.8640280615       -0.4579200539      -14.4048457166
 O         4.3640053293        0.6140377215      -14.4246943358
 C         4.3518351002       -1.5548833149      -15.3179703879
 C         6.2183100423       -2.3704931155      -13.4614658474
 C         5.2174660605       -0.6186646992      -11.8617392915
 C        13.4820439364        0.3611716476      -14.3598775188
 C        12.5589246885        2.0899919773      -12.5553411327
 C         8.0956845525        2.3778543611      -16.3113219126
 C         8.7601831067        3.4999151913      -18.4966316973
 C         2.7109993833        4.9141171716      -18.4625269600
 C         2.8503881398        7.1613725015      -17.4589590292
 C         3.5627480812        7.4121716192      -11.9892940399
 C         5.4511209045        6.2584874418      -10.8751127799
 C         0.3440827430        1.5881380028       -7.4699359893
 C         0.6893996544       -0.1437688672       -9.2994439586
 C        -6.5117421112        2.2404615519      -11.1154875110
 C        -5.2629877431        4.3198138314      -11.7023033529
 C       -10.0670760601        2.8653948196       -5.7492544374
 C        -9.2523013514        0.7872547235       -4.4887593220
 C       -11.9278379246       -3.5655174018       -9.4348472520
 C       -12.7534110007       -1.5600167495       -8.1592704032
 C       -17.2124191428       -7.7048243524       -7.6362362862
 C       -16.8316916023       -7.5789623421       -5.0870908314
 C       -12.1576246525      -13.6168741656       -7.4857742967
 C       -14.4168225512      -14.9021797279       -7.5207213751
 C       -14.4298956358      -14.7937492238       -0.6828184866
 C       -16.2025187376      -16.4898286160       -1.4650392185
 H       -17.1049012779      -13.4108580631        0.4962665671
 H       -17.5316908331      -15.0994363693        0.0037306186
 H       -18.5651119227      -13.6870854143       -0.4496343929
 H       -13.1962538762      -16.6124266733       -3.0481914491
 H       -12.9728395236      -14.9050388980       -2.8016412222
 H       -13.7507185996      -16.2781408053       -5.4536024274
 H       -12.1320812108      -15.7005739939       -5.2335343451
 H       -13.3579596580      -11.1931248489       -8.2583667175
 H       -13.4770657475      -10.5427554825       -6.7687457194
 H       -16.1719575305      -10.7515180356       -8.2894343688
 H       -15.1817909907       -9.3019546208       -8.4554239640
 H       -15.1693603075       -5.3733988632       -6.0150361927
 H       -15.4288775433       -5.6890889107       -7.7158824622
 H       -13.0199968116       -5.6249057191       -8.2548792483
 H       -12.4946537305       -5.6281001269       -6.5933216097
 H        -9.7195615302       -1.4355771727       -8.5020531207
 H        -8.6832265048       -2.5405515149       -7.6118485511
 H        -8.7368238741       -0.9602186258       -6.0197959664
 H       -10.4732284572       -1.2770222589       -5.5925899035
 H        -7.4960870946        3.6643105729       -6.7597985820
 H        -8.0919946579        2.9204104982       -8.2136755292
 H        -5.7741690456        1.5766524288       -8.5199270661
 H        -5.1008998520        2.7172921187       -7.3631363995
 H        -2.7616367570        2.8941988326       -8.9488113255
 H        -2.1705905478        3.3768837625      -10.5160430062
 H        -1.6042200607        1.0761130718      -11.1354032578
 H        -2.0319206626        0.5260266517       -9.5115816370
 H         2.4712261462        3.6231142100       -7.8061870607
 H         1.2433248986        3.9367863725       -8.9599323091
 H         3.5600781972        3.5480338272      -10.5954108429
 H         4.1665552219        4.4166450513       -9.1589086441
 H         1.9390564642        5.4564222701      -13.1383764561
 H         2.7419269745        4.1151591287      -13.9683871055
 H         4.0189521050        6.6411673480      -14.7934369660
 H         2.2783884325        6.5584535514      -15.0188189553
 H         5.9757335700        7.1090902999      -16.3254514144
 H         6.2027001184        7.6143741157      -18.0290215207
 H         8.2564080577        6.5340853927      -16.8462408003
 H         7.8125717640        5.8478373233      -18.5225255403
 H        11.6770715819        4.7754081147      -17.2373450781
 H        11.0446604088        2.9616030919      -17.3429163639
 H        12.0410030705        4.0119521041      -14.5358925415
 H        13.1234173417        3.5054174851      -15.8082082943
 H         9.3874365979        1.5586631803      -13.4082929281
 H         9.6567028450        0.7298524826      -11.9142898006
 H         8.4604616074       -1.4229846267      -12.7884821098
 H         8.5224862481       -0.7261421925      -14.2876479340
 H         5.2286898079       -1.9845559785      -15.7827862351
 H         3.6645223851       -1.1637332587      -16.0526338320
 H         3.9022959328       -2.2632987380      -14.5043330079
 H         5.2923391737       -2.9478849083      -13.2822678491
 H         6.8252762968       -2.7747112777      -12.6275240484
 H         6.5678146569       -2.4729686628      -14.4905119700
 H         4.7694883583        0.4105072608      -11.8680550065
 H         6.0214277399       -0.6594279702      -11.0990792167
 H         4.3949862574       -1.3229785718      -11.4168685107
 H        14.3232621196        1.0187563086      -14.6512749581
 H        13.3044671466       -0.2790698585      -15.2173615681
 H        13.9169888715       -0.2751770159      -13.6190878633
 H        13.3948776316        2.7152901848      -12.8742976636
 H        12.9327225999        1.5479922246      -11.6760389049
 H        11.7168601626        2.6453824833      -12.1775059885
 H         8.3184380032        2.6862157442      -15.2908598272
 H         8.9373938282        1.6643952062      -16.6061062451
 H         7.0679929081        2.0733806169      -16.5935862771
 H         9.1816739557        4.3876096071      -19.0963543980
 H         7.7539224974        3.4160463624      -18.9047742732
 H         9.2353185608        2.6144425148      -18.6949102962
 H         1.6392637986        5.0260189807      -18.2351710927
 H         3.1251913819        3.8537912104      -18.4083275382
 H         2.8914653940        5.2440708046      -19.4740191802
 H         2.7711428580        7.5338848333      -18.4601597937
 H         3.4533138148        7.7716909260      -16.8581731996
 H         1.8754974714        7.1926761986      -16.9949273847
 H         2.9461429585        7.7514270700      -11.1323625110
 H         3.0270942508        7.4885550306      -12.9969288264
 H         4.3871439806        8.0904945875      -12.0060094466
 H         6.2315332519        6.4288198757      -11.5782993499
 H         5.7319895499        5.2521783050      -10.4519744999
 H         5.3272605247        7.1593459216      -10.2345308368
 H         0.9176267196        2.4300652850       -7.1492114673
 H         0.5104951532        0.7784632903       -6.7445420466
 H        -0.7219427669        1.8336909641       -7.1927993862
 H         0.0076078100       -0.5797027939       -8.6182455107
 H         1.7132072371       -0.5676952041       -9.1952393191
 H         0.3776850290       -0.4519631560      -10.3053765865
 H        -6.4996234956        1.3581915837      -10.5934339409
 H        -6.4631231248        1.9858361080      -12.1835018980
 H        -7.5103181069        2.6225385138      -10.9864411917
 H        -4.3212091169        4.2681919896      -12.2082598225
 H        -5.3437005186        5.2953296214      -11.1150111480
 H        -6.0729658929        4.3083153573      -12.4506913352
 H       -10.9751317511        2.7027833275       -5.1043365364
 H       -10.3431870766        3.2462820579       -6.7610634551
 H        -9.5643417307        3.5489478523       -5.1322187979
 H        -8.9666347834        1.6453383891       -3.8273597562
 H        -8.4523366582        0.0150549257       -4.3620721880
 H       -10.3107517880        0.5570557865       -4.1182766773
 H       -11.1877605565       -2.9568919424       -9.8560390930
 H       -12.8390788505       -3.4067351714      -10.0298255651
 H       -11.5964296419       -4.5826512651       -9.4218912238
 H       -13.8328513502       -1.4755252010       -8.1357311539
 H       -12.3733056937       -1.0692753941       -9.0918987054
 H       -12.4446537013       -0.9396778838       -7.3818691796
 H       -16.7127253840       -7.9804566729       -8.5162651067
 H       -17.4382958155       -6.6135659748       -7.5219676470
 H       -18.1810932921       -8.2068960973       -7.4594897246
 H       -16.3105420165       -8.0270288107       -4.2905976526
 H       -17.7760981320       -8.0083518869       -4.8231402029
 H       -16.8801013580       -6.4903794929       -5.0573294214
 H       -11.7215199893      -12.6355125694       -7.2218229838
 H       -12.1443820343      -13.7140080046       -8.5560665214
 H       -11.4613493475      -14.3940579600       -7.0548711246
 H       -15.3883294272      -15.0358483660       -7.0669943221
 H       -13.7918219249      -15.7234046575       -7.3793820267
 H       -14.6556072029      -14.7413292618       -8.6035380772
 H       -13.8387128338      -13.8313481927       -0.9081807894
 H       -13.6448998854      -15.6423737173       -0.7004162312
 H       -14.8697853771      -14.6344636873        0.2618035059
 H       -17.2440087890      -16.5488985668       -1.7649793844
 H       -16.2041420726      -16.6736679406       -0.3907754328
 H       -15.6544118988      -17.2618936541       -1.9989226720
 Na      -15.8770440755      -12.3055319792       -4.3593608192
 Na        5.5679167814        2.7724502627      -14.2355445235
