232

 C       -22.9873466140       -4.1442380030        0.1303567845
 C       -22.0959446316       -4.5975337917       -1.0147266919
 O       -20.8938572522       -4.9182416535       -0.7847029363
 C       -22.7148362079       -4.3406709346       -2.4142387251
 C       -21.5523938343       -4.3644448326       -3.5526736856
 O       -20.8137093044       -3.4157752636       -3.5299058536
 C       -21.3864644815       -5.4320255845       -4.6501110836
 C       -20.2239551261       -5.1738732805       -5.5756474266
 C       -18.7383051414       -5.1955543724       -5.1165578282
 O       -18.4045532886       -5.6840290123       -4.0126476853
 C       -17.7182064053       -4.5945131863       -6.0470671320
 C       -17.4169066379       -3.2164123966       -5.1791807902
 O       -17.8467559094       -2.0994644039       -5.3891602235
 C       -16.5819094194       -3.3683957979       -3.8354692214
 C       -16.9558114247       -2.3804180895       -2.7820601084
 C       -16.6320635219       -2.8777366814       -1.3196364567
 O       -17.5197618070       -3.4820652626       -0.7459782175
 C       -15.3503189327       -2.4806910813       -0.5844474981
 C       -14.0087079019       -2.7551350665       -1.5595525073
 O       -13.8643628543       -1.8919147760       -2.3896721136
 C       -13.0275862816       -3.8221242700       -1.2871506756
 C       -11.6329558729       -3.2707468668       -1.7101085497
 C       -10.6538021114       -4.4560474736       -1.6886774156
 O       -10.9973678844       -5.4179970248       -2.3095254740
 C        -9.3518941284       -4.5556377164       -0.7935801430
 C        -8.4309952024       -3.3881821454       -1.2956764147
 O        -8.7060699655       -2.2193015694       -1.1071935891
 C        -7.2631893357       -3.6826554229       -2.2410923682
 C        -6.3605785785       -2.4348832254       -2.3708552386
 C        -5.9983603809       -2.2798669911       -3.8567241784
 O        -6.5076795793       -3.0132520170       -4.6828355143
 C        -4.8549208038       -1.3445805339       -4.3568127331
 C        -3.7454500648       -2.2543070763       -5.1820073219
 O        -2.6280725619       -2.3760901461       -4.8134724344
 C        -4.2339359190       -2.9862761927       -6.5177210215
 C        -2.9200251166       -3.0677998996       -7.4488863780
 C        -2.4353267376       -1.5242970398       -7.6581450363
 O        -3.0673800760       -0.5260162993       -7.3443092229
 C        -0.9818469553       -1.2920389615       -8.2423935185
 C        -1.1556846535       -1.7390898605       -9.7782923514
 O        -2.2220063995       -1.4495727488      -10.3102265695
 C        -0.0462751399       -2.4573535036      -10.5379810059
 C        -0.6021335693       -2.5230204501      -11.9905807607
 C         0.5872542764       -2.5537425896      -12.9091615350
 O         1.6952794702       -2.2305635589      -12.5763644972
 C         0.3511240198       -3.0016463173      -14.4514261343
 C         1.6234514807       -2.9613362440      -15.4539670573
 O         1.6394028865       -2.3192608865      -16.4986382825
 C         2.9354895021       -3.7027992347      -14.9368275951
 C         4.2210999702       -3.4741563803      -15.7472927733
 C         5.4406377160       -3.7598209570      -14.9143206127
 O         5.4052280039       -3.6226201340      -13.7204872239
 C         6.8962930321       -3.9465357164      -15.6132697041
 C         7.5326865370       -2.4843973517      -15.8362064140
 O         6.8831607236       -1.6241988459      -16.4361058106
 C         8.9047093049       -2.0419067462      -15.2848710075
 C         8.7086090831       -1.0971602213      -14.0946102116
 C         9.3084433516        0.2591380383      -14.3028477347
 O         9.5845794670        0.7148200178      -15.3657786976
 C         9.4897828963        1.3078571603      -13.0427263409
 C         8.0692485171        2.0911948215      -12.8137253499
 O         7.2067239359        1.5224606311      -12.1589336896
 C         7.8541627021        3.3441312033      -13.7082248937
 C         6.5419250374        3.6120151201      -14.3701259803
 C         5.7969277632        2.4212740579      -15.0151626945
 O         6.5218140316        1.6605063246      -15.6818413894
 C         4.2932072556        2.1559307265      -14.8652186840
 C         3.6761970806        2.0952932172      -16.2485083044
 O         3.8263536067        3.0482917880      -16.9793338970
 C         2.7268759368        0.9927593345      -16.7641899589
 C         2.6239482001        1.1967612350      -18.2835348414
 C         3.9371668857        0.9321886372      -19.0987250337
 O         4.9250101658        0.3872579818      -18.5567224062
 C         4.1250975812        1.0932554439      -20.7590298692
 C         5.5549914680        1.5722507213      -21.0657503705
 O         6.2383811811        1.0652818190      -21.9174649361
 C         5.9536343988        2.8376881812      -20.2316293890
 C         7.4008695654        3.3777319205      -20.3549683471
 C         8.3202231171        2.5527593012      -19.4039680726
 O         8.0439020489        2.5149496284      -18.1930605106
 C         9.6986486772        1.9947099277      -19.7910732679
 C         9.6763100556        0.4426493420      -19.7721063943
 O         9.8906367739       -0.1576279371      -18.7092823768
 C         9.3818837320       -0.3396952075      -20.9952564558
 C        10.2983343067        2.4512677591      -21.2250368433
 C        10.7187793557        2.5975258360      -18.6868384448
 C         3.7373715848       -0.1165184602      -21.6493075281
 C         3.1258587272        2.2973050542      -21.2985997495
 C         4.3055126318        0.6971676813      -14.2338767839
 C         3.5185645579        3.1198979848      -13.9326259650
 C         9.6791025031        0.6131725686      -11.6921598980
 C        10.6672642898        2.3442004427      -13.2669159316
 C         7.6581120195       -4.9191530105      -14.8238481759
 C         6.7066225246       -4.7489534336      -16.9841858787
 C        -0.1320700915       -4.4899786570      -14.4020332484
 C        -0.8616329753       -2.2451390282      -15.2182066810
 C        -0.7444918681        0.2181776628       -8.3369979349
 C         0.1965548136       -2.0700942312       -7.5307732609
 C        -5.5899595225       -0.3713081105       -5.3250876825
 C        -4.1252311220       -0.6405531770       -3.2123051784
 C        -9.5652716731       -4.3587348204        0.7946184051
 C        -8.6005813682       -5.9276743525       -1.0742184601
 C       -15.5382808854       -0.9698384938       -0.2026979849
 C       -15.3259516251       -3.2739851767        0.6411173050
 C       -16.3532734053       -5.3703643400       -5.9489281048
 C       -18.2281838244       -4.1930749325       -7.4556779100
 C       -23.9346210402       -5.2444957058       -2.6481549430
 C       -23.2737857434       -2.8859064275       -2.5203691638
 H       -23.9675812378       -4.3693868250       -0.1866848799
 H       -23.0297546871       -3.0546611114        0.2160141138
 H       -22.8499773882       -4.5426475060        1.0643047491
 H       -22.2717624040       -5.5984806460       -5.1967620648
 H       -21.1609794523       -6.3376266605       -4.0655059176
 H       -20.3806700747       -4.1551206069       -5.9536987183
 H       -20.2034262590       -5.7710714926       -6.4299276046
 H       -15.5437217026       -3.3095083146       -4.0116547278
 H       -16.8242767697       -4.4266714060       -3.4962202190
 H       -18.0032031822       -2.1276170344       -2.8057786153
 H       -16.3157151898       -1.4965168574       -2.9348192451
 H       -13.1578447565       -4.6772377257       -1.9524225158
 H       -13.0099706103       -4.0464621737       -0.2419309464
 H       -11.3942667122       -2.4572052943       -0.9845722138
 H       -11.6638540545       -2.7520410331       -2.6334822444
 H        -7.7259821701       -3.9527188064       -3.2099342844
 H        -6.6695957159       -4.5152005836       -1.9733917658
 H        -5.4523087725       -2.5184898464       -1.8143817521
 H        -6.9002272071       -1.5997522301       -1.9666501383
 H        -5.0827786308       -2.4832923217       -6.9698545795
 H        -4.5092269261       -4.0029413254       -6.1575019540
 H        -3.1071075686       -3.4811869099       -8.3848258483
 H        -2.1784456710       -3.6896309806       -7.0203077268
 H         0.2246418572       -3.4115932620      -10.2228746644
 H         0.8234934019       -1.8367090268      -10.5029346941
 H        -1.1964964465       -1.5949563598      -12.1459285980
 H        -1.2898228253       -3.3377053871      -12.0373646507
 H         2.7092927233       -4.7723856437      -14.9129610883
 H         3.0102299884       -3.3381631688      -13.8856606369
 H         4.1779343005       -2.4821476890      -16.1115625830
 H         4.2248237447       -3.8032493600      -16.8014618143
 H         9.3417532324       -1.5270117687      -16.1400579162
 H         9.6985984413       -2.7625559470      -15.0018617717
 H         9.2244978727       -1.5424233534      -13.2595997615
 H         7.7292972873       -0.9639897257      -13.6665419124
 H         8.6320111443        3.1945837555      -14.5430205110
 H         8.1379616093        4.2572179207      -13.2866321454
 H         6.5979310365        4.3459172634      -15.2601073649
 H         5.8336265641        4.2114343639      -13.7386335026
 H         1.7247399317        1.1954972728      -16.4206250692
 H         2.9812978266        0.0157191993      -16.6422284799
 H         2.0586700608        2.1397804901      -18.4932299554
 H         2.0427688388        0.3757284314      -18.7650424860
 H         5.8886834048        2.6846930426      -19.1537257580
 H         5.3790562627        3.7877248085      -20.3263539357
 H         7.3329775561        4.3903350009      -19.9646730165
 H         7.7123198657        3.4941997676      -21.3892938620
 H         8.5028483435       -0.9125860545      -20.8446660008
 H        10.3462185839       -0.8799206721      -21.2553642693
 H         9.2681599538        0.1732118353      -21.9562148585
 H        10.9695345824        1.6909233295      -21.4944018432
 H        10.6940866254        3.3937850043      -21.0926148277
 H         9.4519021448        2.5335105039      -22.0093536356
 H        11.7626770470        2.4285300713      -18.9948860799
 H        10.4273617627        2.0693556114      -17.7420436899
 H        10.4042395945        3.6535544555      -18.6235790986
 H         4.1707235274       -1.0224789416      -21.2944918753
 H         4.1582232208        0.0431339832      -22.5737827969
 H         2.6548583191       -0.2908574451      -21.6931209643
 H         2.2694129782        2.4991848265      -20.7113463436
 H         2.6954251179        2.0523480185      -22.2496726291
 H         3.6458515385        3.1872690317      -21.3149171484
 H         4.6781694245        0.0015818556      -14.9463100872
 H         3.2610417139        0.3871848743      -14.1378569927
 H         4.8127139003        0.5590849303      -13.2953948311
 H         3.5639734225        4.0867760223      -14.4360544523
 H         3.9362005126        3.0381703449      -12.9411461248
 H         2.4663592399        3.0980808746      -14.0180342541
 H         9.9623545326        1.3593547342      -11.0339222033
 H        10.4497122385       -0.1397068604      -11.7088726270
 H         8.7615078909        0.2546684010      -11.2509421901
 H        11.0523780684        2.0936765924      -14.2715487923
 H        11.4273853714        1.9994214803      -12.5452969961
 H        10.2588091136        3.3474749908      -13.1360465244
 H         7.4429333391       -5.8708865322      -15.2384154158
 H         7.2802582670       -4.8597592776      -13.8491143428
 H         8.7116020771       -4.8615969092      -14.8809491717
 H         6.0498205714       -5.6332110047      -17.0411211725
 H         7.6115202069       -5.2394313561      -17.2731613989
 H         6.3908404874       -4.0249903503      -17.8231137002
 H         0.6268907353       -5.1976889297      -14.2497963985
 H        -0.4842044009       -4.7292002265      -15.3783964195
 H        -0.9003566834       -4.5753665008      -13.6112852801
 H        -1.0860192998       -1.2601274933      -14.7576698374
 H        -1.8084938841       -2.8167602448      -15.1751705341
 H        -0.5193376496       -2.1434328638      -16.2416526496
 H         0.2912986951        0.4190975671       -8.5261716447
 H        -0.8721578332        0.6678665400       -7.2855010824
 H        -1.2743270010        0.7965391762       -9.0862708925
 H         0.0377859732       -3.1338845761       -7.4241677632
 H         0.2461268739       -1.7391510899       -6.5149803901
 H         1.1101727942       -1.9133365919       -8.0762452063
 H        -6.4586812120       -0.8800040286       -5.8034866327
 H        -4.9427977941        0.1037417981       -6.0329330053
 H        -6.1495642614        0.4783761772       -4.8000272692
 H        -4.7824250475        0.1028583172       -2.7696952256
 H        -3.3295185425       -0.0998318239       -3.7348931432
 H        -3.7328700828       -1.4574140830       -2.5459280257
 H       -10.5742506076       -4.7079668059        1.0814021700
 H        -9.4595309526       -3.2434258194        1.0569039246
 H        -8.8239708273       -4.8073564279        1.4024886284
 H        -9.1990033589       -6.8515574456       -0.8112675584
 H        -7.6172175230       -5.8975764917       -0.6449467121
 H        -8.4707269031       -6.0847977489       -2.1138506463
 H       -16.5950036994       -0.9655175049        0.2445340978
 H       -15.5168260565       -0.3222520546       -1.0652149367
 H       -14.6759703641       -0.5803162147        0.3631747762
 H       -14.4259294056       -2.8563581661        1.2122408238
 H       -15.0493109916       -4.3620594136        0.4798744931
 H       -16.3741625887       -3.3496807317        1.0994614107
 H       -16.5019275565       -6.3340025276       -6.2499457468
 H       -16.1141717630       -5.3999626812       -4.8677044984
 H       -15.5653796244       -4.7948016838       -6.5031112039
 H       -19.2367345868       -3.7920757911       -7.3367415663
 H       -18.4421975421       -5.0164846362       -8.0867585477
 H       -17.4971255730       -3.5011405845       -7.8792914880
 H       -23.6549709592       -6.3025936203       -2.2918832895
 H       -24.3535611852       -5.1112653981       -3.6104093995
 H       -24.7577353469       -4.9181643152       -1.9907635088
 H       -24.1894962669       -2.8020579550       -2.0055408045
 H       -23.4765354447       -2.6668478838       -3.5141272513
 H       -22.4924022244       -2.2759680083       -2.0452434274
 Na      -19.1762500588       -4.4591184717       -1.9704563167
 Na        8.0012705435        0.6474768775      -16.7550795574
