232

 C       -22.8499869409       -4.2185151702        0.3236964029
 C       -22.0941346135       -4.5500470034       -0.9552095427
 O       -21.0000360168       -5.0113220003       -0.8398219599
 C       -22.6937132720       -4.3282390910       -2.4351156818
 C       -21.5355645657       -4.4436521685       -3.4337183104
 O       -20.5935039001       -3.6495683324       -3.3378412322
 C       -21.3117264488       -5.5619053731       -4.5068993191
 C       -20.2560180059       -5.0519559049       -5.5298204831
 C       -18.7998506874       -5.1500329945       -4.9781579585
 O       -18.5263513350       -5.7557498347       -3.9695033769
 C       -17.6270147181       -4.5175324358       -5.8811662955
 C       -17.3439172792       -3.2121982684       -5.0157193709
 O       -17.9860975388       -2.2368600771       -5.2249288778
 C       -16.4641389944       -3.3346508978       -3.7774353501
 C       -16.7631765916       -2.1387061331       -2.7515538656
 C       -16.6734286998       -2.6582681843       -1.3166973090
 O       -17.6111214852       -3.3391684577       -0.8490200421
 C       -15.3530568323       -2.3294020652       -0.6235277813
 C       -14.1685495968       -2.5573940859       -1.6134790578
 O       -14.0908763654       -1.8634582450       -2.6167931809
 C       -12.9911939564       -3.5702765668       -1.1381370703
 C       -11.5180527937       -3.2406185238       -1.6079364275
 C       -10.6724767995       -4.5689421330       -1.6468445437
 O       -10.9814614670       -5.6147474391       -2.2552075214
 C        -9.3429188440       -4.6297030679       -0.8148394975
 C        -8.4675446177       -3.3113043624       -1.3265151244
 O        -8.8222990077       -2.2096101740       -0.9626803033
 C        -7.1871375100       -3.6105304954       -2.0955984789
 C        -6.3443895460       -2.3804620964       -2.4919478475
 C        -5.9574308482       -2.3525608680       -3.9766306090
 O        -6.5009793410       -3.0335910333       -4.8242805349
 C        -4.8332338330       -1.3523018733       -4.4571953117
 C        -3.7229941112       -2.0551024729       -5.3064283790
 O        -2.5515330038       -2.0534966280       -4.9100617431
 C        -4.1221679317       -2.8838962086       -6.5606382084
 C        -2.9537856812       -2.8486074159       -7.4695286167
 C        -2.5399782409       -1.3982240751       -7.6785398742
 O        -3.2628939387       -0.4419693863       -7.5467904767
 C        -1.0431744754       -1.2483999307       -8.3630620839
 C        -1.4499567635       -1.8064021952       -9.8561811362
 O        -2.5923974490       -1.8146551084      -10.2846019664
 C        -0.2645855180       -2.4778352193      -10.7360613710
 C        -0.6019552029       -2.5098084705      -12.2082984542
 C         0.6616230641       -2.5029761481      -13.1076512848
 O         1.7643633322       -1.9700175036      -12.8906563935
 C         0.4226439492       -3.0986100543      -14.5625144908
 C         1.7651517845       -2.8775820633      -15.4332985442
 O         1.7774580598       -2.2432438068      -16.4340609798
 C         3.1063082614       -3.5163822062      -14.7874714851
 C         4.2802115063       -3.5183312829      -15.7369519988
 C         5.4967765824       -3.8102485603      -14.8688631235
 O         5.4521291726       -3.6897798721      -13.6487434650
 C         6.8868442950       -3.9043998819      -15.6581176920
 C         7.4360200966       -2.4496183259      -15.7852464664
 O         6.7158660841       -1.6546659168      -16.3323889260
 C         8.8086374216       -1.9110758878      -15.3692832308
 C         8.7417405541       -1.0647644646      -14.1168319412
 C         9.4022693108        0.3546243912      -14.2385276388
 O         9.6007339635        0.9611357157      -15.3272825970
 C         9.5007807792        1.1974580381      -13.0066804127
 C         8.0716596345        1.9898254912      -12.9769962955
 O         7.1029523604        1.5221046308      -12.3902665480
 C         7.8654330442        3.2476093633      -13.7713210976
 C         6.3697260612        3.4544672254      -14.0204181147
 C         5.8331205465        2.3658920313      -14.9186752987
 O         6.6226908409        1.7331827790      -15.5582651867
 C         4.2229169634        2.0390090638      -14.8091729897
 C         3.7201887110        2.0501294508      -16.2817922050
 O         3.7976838519        3.1402791216      -16.8859576636
 C         2.9731016680        0.8887076148      -16.8300951866
 C         2.6373881740        0.9027466620      -18.3788655086
 C         4.0425413997        0.9135939273      -19.0481899758
 O         5.0058156013        0.5912194403      -18.4452940418
 C         3.9925962523        1.0927107664      -20.6575900499
 C         5.3937640342        1.6822920292      -20.9462558053
 O         6.0667620916        1.2297453594      -21.8308542248
 C         5.9174031540        2.9103482936      -20.1402137349
 C         7.4924778598        3.1933058732      -20.4831021423
 C         8.3740487677        2.5646950616      -19.3875706753
 O         8.0575376458        2.6028678411      -18.2331410457
 C         9.8099296948        1.9181897517      -19.7238504612
 C         9.5624652223        0.3706344453      -19.6430655564
 O         9.6883530012       -0.2459467688      -18.6183535999
 C         9.3122249022       -0.4860581033      -20.9019797619
 C        10.3206516171        2.4131109150      -21.0802666323
 C        10.8600199461        2.2140585519      -18.5479650274
 C         3.7665405178       -0.3791531477      -21.1388972030
 C         2.8793531052        2.0340840973      -21.0310149629
 C         4.2251656874        0.6071907550      -14.0891381436
 C         3.3462278893        3.0135070751      -13.9950778945
 C         9.7779971276        0.3378824212      -11.6904468305
 C        10.5641468003        2.3130713163      -13.1656332303
 C         7.7548114843       -4.7386418620      -14.6663765902
 C         6.6856949998       -4.5277267190      -17.0427162034
 C         0.1014003168       -4.6288495319      -14.5333477773
 C        -0.7057560388       -2.1713244215      -15.1533132203
 C        -0.6371805602        0.2002565586       -8.6102171340
 C        -0.0034431426       -2.0157400409       -7.5292833901
 C        -5.6250321623       -0.3577185311       -5.3215936657
 C        -4.0488523563       -0.5225788480       -3.3529383638
 C        -9.5446473548       -4.2732118037        0.7108795568
 C        -8.7307867186       -6.0531393535       -0.9841885645
 C       -15.2367653021       -0.8297066239       -0.1786291602
 C       -15.2784562965       -3.2607441605        0.6543560261
 C       -16.4159592577       -5.4183065593       -6.2905031637
 C       -18.0866193188       -3.9901237800       -7.2929577868
 C       -23.7729626432       -5.4653700677       -2.6980297737
 C       -23.2504500794       -2.8683044672       -2.5882482538
 H       -23.6342247660       -4.9483229573        0.6905709267
 H       -23.4462071200       -3.3156439621        0.1741587730
 H       -22.1003317868       -4.0385834816        1.1510394037
 H       -22.2681134089       -5.6211621006       -5.1021677746
 H       -21.1071034968       -6.5312229372       -4.0548169936
 H       -20.5654381981       -4.1211169014       -5.9620950258
 H       -20.1010650695       -5.7569014438       -6.4108576811
 H       -15.4286660466       -3.2731910805       -4.2759512484
 H       -16.4865085462       -4.3065455314       -3.4360424580
 H       -17.8395230513       -1.8972344844       -2.9136013624
 H       -16.0327659396       -1.3314177419       -2.8641025296
 H       -13.2171566757       -4.6018466886       -1.4952701108
 H       -12.9016842837       -3.5329083853       -0.0104031287
 H       -11.0800014805       -2.4506288997       -1.0118498019
 H       -11.5603846054       -2.8216763243       -2.6443250516
 H        -7.4943967961       -4.1625047850       -2.9522627606
 H        -6.5229151699       -4.2644867571       -1.5069590168
 H        -5.4335489223       -2.3033424780       -1.8442406065
 H        -6.8831764738       -1.4004589067       -2.3520570018
 H        -4.9971257925       -2.3495209064       -6.9467713418
 H        -4.3793111006       -3.9099971258       -6.3511679438
 H        -3.1571290924       -3.4407142483       -8.4380533414
 H        -2.1128503256       -3.4118632684       -6.8750373324
 H        -0.1098073263       -3.5203892578      -10.2968036117
 H         0.6632720945       -1.8853824107      -10.7038220196
 H        -1.0385085806       -1.5279061045      -12.2299106008
 H        -1.3760197628       -3.2478188766      -12.5055337368
 H         2.8959091051       -4.5250765640      -14.3909807697
 H         3.2478550456       -2.8550703380      -13.9376830172
 H         4.3424697879       -2.5583511495      -16.3383273350
 H         4.1352120968       -4.0069389483      -16.6488264497
 H         9.2701947713       -1.4332815631      -16.2607739504
 H         9.4428692495       -2.7790236064      -15.1355736316
 H         9.1389028960       -1.5779719515      -13.2408916302
 H         7.6484971104       -0.8848052671      -13.8958954065
 H         8.3290782908        3.1409532436      -14.7237495603
 H         8.3683782885        4.2058635371      -13.3144515998
 H         6.0779719581        4.3545944217      -14.5217465973
 H         5.6653793846        3.4543226257      -13.1726152565
 H         2.0218876598        0.6976002632      -16.2913885673
 H         3.6875154240       -0.0134584901      -16.6751378257
 H         1.9557137567        1.6799495077      -18.6159345087
 H         2.1602873387       -0.0065704079      -18.7048681682
 H         5.9100360447        2.9321410663      -19.0487132751
 H         5.3119556454        3.7611326510      -20.4015575282
 H         7.8658371244        4.2251047680      -20.5976712324
 H         7.7245749747        2.7275742124      -21.4370290870
 H         8.1739734591       -0.6953455260      -20.9583925738
 H         9.9285397249       -1.3404334070      -20.9851074671
 H         9.5858581283        0.0158009279      -21.8245405584
 H        11.3625652966        2.1029099021      -21.2865001261
 H        10.1031412834        3.5138326381      -21.0335730944
 H         9.6486070458        2.1694703299      -21.9357523554
 H        11.7470757745        1.6256118807      -18.7623560237
 H        10.4697141068        1.8381176179      -17.6468530954
 H        10.9513567585        3.2653166197      -18.5328061699
 H         4.4593048301       -1.0404384209      -20.5670843920
 H         4.2320771588       -0.4397963326      -22.1852441139
 H         2.7788917792       -0.7537074310      -21.1874581341
 H         1.8704183774        1.6034944072      -21.1819275055
 H         3.1130117768        2.5599868799      -21.9533523605
 H         2.6537035554        2.7452179505      -20.1744604577
 H         4.7323488533       -0.2104163844      -14.6541500771
 H         3.2237680505        0.2074945995      -13.8392177300
 H         4.6746775461        0.7833509795      -13.0756454554
 H         3.1688710403        3.9171592672      -14.5398516805
 H         3.6980789831        3.0383317736      -12.9832129936
 H         2.3355191937        2.6417132896      -14.0847317432
 H         9.7861493557        0.9364964749      -10.7404681803
 H        10.7586391358       -0.1650404570      -11.8558020867
 H         9.0467745939       -0.4313757870      -11.5164647784
 H        10.2494659884        2.8624261658      -13.9996808985
 H        11.4976040323        1.9042406525      -13.4632671172
 H        10.6270397641        2.7656095898      -12.1403141662
 H         7.6057305818       -5.8304724799      -14.6608888840
 H         7.6631089552       -4.2326234086      -13.6914275556
 H         8.7682847559       -4.6867326790      -15.0132987342
 H         6.3621474501       -5.5383654863      -16.8775699095
 H         7.6098103704       -4.8024401339      -17.5638344817
 H         6.0103601161       -4.0416096887      -17.6610772587
 H         1.1192158972       -5.0939795441      -14.6271395461
 H        -0.3300223818       -4.9918492520      -15.4996087692
 H        -0.4341537307       -4.9893331493      -13.6662964925
 H        -0.5514213309       -1.1568810894      -14.9351818592
 H        -1.6598398656       -2.4873894634      -14.8289520992
 H        -0.6717232205       -2.3721909616      -16.2101481652
 H         0.4142622969        0.4286772956       -8.2710614341
 H        -1.2323010951        0.9206038747       -8.1209255311
 H        -0.5993806045        0.4561516379       -9.7136125359
 H        -0.2789913707       -3.0015186172       -7.2094310504
 H         0.1031278417       -1.3695868940       -6.6210110243
 H         0.9760285073       -2.0189272743       -8.0128505986
 H        -5.8211446009       -0.7152785435       -6.2975140404
 H        -4.9842670281        0.5410404319       -5.3925333343
 H        -6.5653256595       -0.0310041393       -5.0219446379
 H        -4.6760504559        0.0737909059       -2.7121108264
 H        -3.4955747326        0.1636930809       -3.9216215923
 H        -3.4746598251       -1.1831322144       -2.8002022821
 H       -10.3669305125       -4.8249887935        1.1778736986
 H        -9.7128659900       -3.2322578359        0.8742494089
 H        -8.6035474978       -4.5663463659        1.2826915482
 H        -9.2094368969       -6.7302548060       -0.3221259973
 H        -7.6419284082       -6.1285940546       -0.8303412757
 H        -8.9804966735       -6.4891669237       -1.9888252406
 H       -15.9816221167       -0.5844140252        0.5171626984
 H       -15.2914822600       -0.1822582494       -1.0814928228
 H       -14.2084874498       -0.6811165689        0.1975736757
 H       -14.3718477941       -3.3061989941        1.1804317449
 H       -15.5465344088       -4.2513431476        0.3881711467
 H       -16.1295681127       -2.9689384772        1.1788489994
 H       -16.8554887103       -6.2934175320       -6.8424565803
 H       -15.9594110648       -5.7958621355       -5.4115002974
 H       -15.7102604818       -4.7910453106       -6.7428986547
 H       -18.5575362480       -2.9443266839       -7.1967590069
 H       -18.8389359411       -4.6568890932       -7.7891066971
 H       -17.2235347310       -3.8639843578       -7.9660197222
 H       -23.2634917951       -6.3986772773       -2.6413328163
 H       -24.2065855605       -5.2386962154       -3.7093616041
 H       -24.6175320614       -5.5087137234       -2.0117272623
 H       -23.9285212161       -2.6068601517       -1.7615778449
 H       -23.8833038317       -2.8061010803       -3.5005146966
 H       -22.4191573986       -2.2301603701       -2.6107274188
 Na      -19.0420896456       -4.3227262996       -2.2527270478
 Na        7.8690485949        0.4114219512      -17.3244148305
