232

 C       -22.7829145863       -4.8248484063        0.2948960685
 C       -21.8648022618       -4.6682369209       -0.9612225132
 O       -20.6588437967       -4.4543276981       -0.7463927422
 C       -22.5669890762       -4.5743937744       -2.3454900452
 C       -21.5187320829       -4.3822868111       -3.5700848966
 O       -20.6955742136       -3.5146284775       -3.5429150791
 C       -21.5036958734       -5.3579268326       -4.6830324125
 C       -20.2388436156       -5.0569373367       -5.6296482153
 C       -18.8895463851       -5.0534834708       -5.0591691859
 O       -18.6012968353       -5.5102204901       -3.9657684914
 C       -17.7619260635       -4.3410525016       -5.8464126187
 C       -17.6665006820       -2.9957403647       -4.9473478847
 O       -18.3614132993       -2.0564808382       -5.2670045294
 C       -16.6259206439       -2.9873980164       -3.8751314136
 C       -16.6092481648       -1.8687980005       -2.8364746506
 C       -16.3323777286       -2.5447802205       -1.4859355235
 O       -17.0491801528       -3.4339981786       -1.0972120476
 C       -15.1245363672       -2.1208711740       -0.6194062943
 C       -13.7822751627       -2.5426995166       -1.4098529079
 O       -13.6008627208       -2.0035857653       -2.4827327751
 C       -12.6166665445       -3.2214227825       -0.6760212031
 C       -11.4803274530       -3.3843638736       -1.6081159905
 C       -10.6507106854       -4.6594467698       -1.4932862580
 O       -11.0709634243       -5.6256497713       -2.0475371962
 C        -9.3180993137       -4.5811048706       -0.7304572919
 C        -8.5329787751       -3.3718911109       -1.2647560368
 O        -8.9451734009       -2.2646121492       -0.9731920296
 C        -7.3167773414       -3.5533267715       -2.2632783436
 C        -6.4316819093       -2.3001217327       -2.4318284497
 C        -5.9054918295       -2.2527948105       -3.8738538273
 O        -6.3357133786       -3.0413456346       -4.6877678637
 C        -5.0328277679       -1.0412075024       -4.3769085752
 C        -3.8564231420       -1.6623233631       -5.2851901867
 O        -2.7078145214       -1.6970139172       -4.9074593680
 C        -4.3080576415       -2.5568486897       -6.5163673569
 C        -3.1818837170       -2.6598091915       -7.5474705640
 C        -2.7030518838       -1.2344573595       -8.0339786983
 O        -3.1795319408       -0.2195405679       -7.5457376290
 C        -1.4658033087       -1.2610444539       -8.9159311236
 C        -1.6784314800       -2.0483373305      -10.2588865481
 O        -2.6399533593       -2.7057355775      -10.5172021427
 C        -0.4382695512       -2.0012589750      -11.1987432210
 C        -0.5915437134       -2.6117688603      -12.6171919861
 C         0.5539673751       -2.1706453028      -13.5493221278
 O         1.3056342946       -1.2890694264      -13.2217539690
 C         0.7459265097       -3.0567199549      -14.9089756882
 C         2.1257973807       -2.9152684677      -15.5653300954
 O         2.2715206635       -2.2626143661      -16.6267047432
 C         3.3206055371       -3.2935707664      -14.6824498300
 C         4.5562768344       -3.4259019924      -15.5849683584
 C         5.7824183582       -3.6675014552      -14.7873242195
 O         5.8529825909       -3.8475252331      -13.5951965165
 C         7.1806607465       -3.7881067242      -15.6320365751
 C         7.4722418911       -2.3594317846      -16.0827529391
 O         6.5653744598       -1.6276658542      -16.5232950263
 C         8.8932247311       -1.6899499448      -15.8548511452
 C         9.0731477816       -1.1080411815      -14.3963686181
 C         9.2201096438        0.3675808720      -14.3962945240
 O         9.1674870920        0.9704962269      -15.4287061778
 C         9.4963591950        1.1317473809      -13.0059637332
 C         7.9956897236        1.7642677714      -12.8119712377
 O         7.1289814076        1.0691542593      -12.3695727110
 C         7.7191691497        3.2100026983      -13.4032078120
 C         6.2270104472        3.5466132253      -13.4974353998
 C         5.6322711186        2.3094201695      -14.3046615288
 O         6.3884048320        1.7743887387      -15.1008923179
 C         4.1475128715        1.9510414837      -14.3642454754
 C         3.7142354393        1.7491763711      -15.9178985377
 O         3.6128721705        2.7112086830      -16.6022617564
 C         3.2821887321        0.3575763199      -16.4651583156
 C         3.0439533583        0.3194666025      -17.9374173860
 C         4.2399848614        0.7800897414      -18.7764653222
 O         5.3352534705        0.9727243006      -18.2228496218
 C         4.2847000754        0.8146398947      -20.4359265062
 C         5.6209603820        1.5320155537      -20.9888607669
 O         6.1266090152        1.1480322175      -22.0398482076
 C         6.1003981495        2.9175325433      -20.4069480967
 C         7.5781110672        3.1703697609      -20.6800962305
 C         8.2643349267        2.4221923664      -19.4991200965
 O         7.7334786162        2.4567491501      -18.3843565411
 C         9.6056241177        1.5978615192      -19.6624878542
 C         9.1334332385        0.1386976059      -19.8166194169
 O         8.5986860441       -0.4358477258      -18.8672891358
 C         9.3338752851       -0.7077000004      -21.0984592656
 C        10.5482257475        2.0475260694      -20.8134119298
 C        10.4020291525        1.6369854850      -18.3416363822
 C         3.9723831885       -0.5668148671      -21.1053039199
 C         3.0837531254        1.8235802741      -20.8972936916
 C         4.0615281568        0.6943616267      -13.4816199777
 C         3.0993266964        2.9589754863      -13.7918642421
 C         9.9629442782        0.2589090660      -11.8936037403
 C        10.5748742516        2.2084982880      -13.1844106947
 C         8.2896345498       -4.5691886747      -14.8945849677
 C         6.9528117882       -4.7733922201      -16.8383205720
 C         0.4548126003       -4.5408635448      -14.7573453382
 C        -0.3437523252       -2.3713415456      -15.8782696249
 C        -1.1255369094        0.1867286094       -9.3960450983
 C        -0.2946676993       -1.7980813575       -7.9016914334
 C        -6.0214432803       -0.2387183841       -5.2342171870
 C        -4.4470913562       -0.3167084131       -3.1323329847
 C        -9.4646157699       -4.2391029156        0.7976961901
 C        -8.6603503493       -5.9137456419       -0.9389087479
 C       -15.0741794149       -0.5440997995       -0.5114304172
 C       -15.2767993118       -2.6570073619        0.7389110633
 C       -16.3272102912       -5.0051478557       -5.7879696360
 C       -18.1315637695       -4.1418046860       -7.2545608491
 C       -23.5157011691       -5.7537134792       -2.5494040725
 C       -23.4349620379       -3.2907059288       -2.3035577181
 H       -22.3880975111       -5.3788870852        1.1662323859
 H       -23.6938811817       -5.4385018041        0.0071156332
 H       -23.1289654092       -3.8668104759        0.6792781156
 H       -22.4011120897       -5.3585797700       -5.2923404714
 H       -21.3645032630       -6.3550734690       -4.2152120555
 H       -20.3494077940       -4.0923253754       -6.2061511856
 H       -20.2247529661       -5.8316849684       -6.4216733048
 H       -15.6860239299       -2.8506677083       -4.4359586696
 H       -16.6186781473       -4.0294126436       -3.5043271810
 H       -17.6206712727       -1.5839002078       -2.5523571448
 H       -15.8650313403       -1.0432880522       -3.0237155851
 H       -12.8965707355       -4.1605764488       -0.2092103689
 H       -12.3326151673       -2.5426714970        0.2092736597
 H       -10.8203441394       -2.4822033474       -1.6942465976
 H       -12.0371655863       -3.5835855547       -2.5088445864
 H        -7.6653703237       -3.8647040273       -3.2613452393
 H        -6.6913418789       -4.2944490590       -1.8599552281
 H        -5.5700569500       -2.2524814359       -1.7194708577
 H        -7.0509534124       -1.3894208234       -2.2570814173
 H        -5.2145574231       -2.1228182771       -6.9206547990
 H        -4.6232706769       -3.4878298410       -6.0598004514
 H        -3.6824805748       -3.2309655385       -8.4209270264
 H        -2.3206420598       -3.2359361878       -7.0194579975
 H         0.4891173083       -2.3755826915      -10.6571223429
 H        -0.1660178585       -0.9329526342      -11.4547067704
 H        -1.5195364694       -2.1282369980      -13.0079056344
 H        -0.7962197303       -3.6495707085      -12.6054310516
 H         3.0423973060       -4.1901248081      -14.1027707156
 H         3.5964968886       -2.5567913541      -13.9155276254
 H         4.7975360745       -2.5840091081      -16.3648266846
 H         4.3722973493       -4.2909855093      -16.2561979746
 H         8.9138413175       -0.8634377149      -16.5159380670
 H         9.7035600467       -2.4575762011      -15.9904634567
 H         9.9255147026       -1.6409942607      -14.0388959722
 H         8.1641191505       -1.2709068435      -13.7110355990
 H         8.2480553998        3.2273919469      -14.3963402062
 H         8.2070562679        3.9402982413      -12.8015011782
 H         6.0354467707        4.2948746405      -14.2447424776
 H         5.7850103405        3.7220732105      -12.5592391795
 H         2.4460151966       -0.0047692777      -15.7467790452
 H         4.0343572470       -0.4289582399      -16.2400939265
 H         2.1727186637        0.8869426895      -18.2262290532
 H         2.8776739709       -0.6898596311      -18.1980117281
 H         5.9195410677        3.0442881402      -19.3641090340
 H         5.5533608970        3.7566293556      -20.8509700388
 H         7.7532025549        4.2700331539      -20.5636381132
 H         7.9116444116        2.9082774815      -21.6803854819
 H         9.5048859601       -0.1851482196      -21.9553095364
 H         8.4558463396       -1.3792174018      -21.3183305803
 H        10.2643871036       -1.2946736099      -20.8769025038
 H        11.3967441955        1.2713813074      -20.9614822216
 H        11.2093771618        2.8311080617      -20.3528936613
 H        10.1947620332        2.3382668369      -21.8026819416
 H        11.4019086136        1.2723860607      -18.4617583970
 H         9.8836147369        0.9669868200      -17.6593569378
 H        10.4194467256        2.6534020222      -17.9468297065
 H         4.6001039310       -1.3687805909      -20.7048257238
 H         4.1035488627       -0.4935514938      -22.1463175144
 H         2.8791247325       -0.8679736303      -20.9617684759
 H         2.2394960677        1.2781994357      -21.3336056389
 H         3.4232268897        2.7455277347      -21.4052664102
 H         2.6177596076        2.3047962665      -20.0508872356
 H         4.5953739516       -0.1338256245      -13.9530196396
 H         3.0285363839        0.3894625762      -13.1544491198
 H         4.6471369930        0.9135601165      -12.5627139869
 H         3.1901659835        3.7641222250      -14.5344843737
 H         3.1538730678        3.3233659400      -12.7798366626
 H         2.2085630607        2.3498390572      -13.8814957151
 H        10.2148284900        0.8501498554      -11.0414791564
 H        10.9431501292       -0.1963396591      -12.1665108228
 H         9.2784783984       -0.5863803409      -11.6553234680
 H        10.3452306321        2.7212467481      -14.1441143263
 H        11.5995453720        1.8527440008      -13.1555333728
 H        10.5348606771        2.8688845915      -12.3273464323
 H         8.1864170368       -5.6539109577      -14.9893396407
 H         8.1667049856       -4.4698642268      -13.8218299095
 H         9.2591028204       -4.0968448623      -15.1145049575
 H         6.5420120154       -5.6865066266      -16.3955980265
 H         7.8098742360       -4.9529235421      -17.4142247938
 H         6.2388186222       -4.4299635915      -17.6511888377
 H         0.9112581992       -5.0113227946      -13.9052510864
 H         0.6363761391       -5.0959051039      -15.7006534744
 H        -0.6663957745       -4.5705078050      -14.6124834808
 H        -0.2271532199       -1.3137788479      -15.8551002865
 H        -1.2997098548       -2.6498311876      -15.4844462352
 H        -0.3322968924       -2.7176967577      -16.8714005528
 H        -1.6999496024        0.8732254343       -8.7910909788
 H        -1.4308848736        0.4232174687      -10.4827351057
 H        -0.1120854145        0.5881955891       -9.3783258945
 H        -0.5313304814       -2.7612142323       -7.5074452552
 H        -0.1586762089       -1.0732986753       -7.1222817707
 H         0.6620337783       -1.8502931078       -8.4107454551
 H        -6.7916266408       -0.8435303880       -5.6858030705
 H        -5.5758836929        0.1735790428       -6.0752292893
 H        -6.4894616005        0.6188997478       -4.7015532771
 H        -5.2637437267        0.0202047728       -2.5624844344
 H        -3.8179874584        0.4944505190       -3.4292747945
 H        -3.8188414329       -0.9365664296       -2.4992999683
 H       -10.2743189756       -4.6263203650        1.3870583086
 H        -9.6760971382       -3.1297956357        0.8519212812
 H        -8.5745560144       -4.5763016244        1.2587141289
 H        -9.2363096854       -6.6764224805       -0.3375059878
 H        -7.6627879209       -6.0593093286       -0.5913971214
 H        -8.6618243991       -6.1000896819       -1.9812318177
 H       -15.9891336976       -0.1642096474       -0.0624263305
 H       -14.9462725507       -0.2063437936       -1.4653534007
 H       -14.4250665564       -0.2503908783        0.2672252383
 H       -14.3682083567       -2.4488886725        1.2298818451
 H       -15.5234860939       -3.6760778449        0.6891678135
 H       -15.9964700797       -2.0523852789        1.2263565767
 H       -16.4139348156       -5.9445362515       -6.1827759017
 H       -15.8576426819       -5.0571931703       -4.7980078890
 H       -15.6916630276       -4.4184220253       -6.4952107413
 H       -18.8434748253       -3.3789552875       -7.4342291389
 H       -18.2570498906       -5.1206931874       -7.7035505785
 H       -17.3536158530       -3.7702431027       -7.9546608500
 H       -23.0677653625       -6.8122274313       -2.5764986253
 H       -23.9955724655       -5.5921006547       -3.4759461696
 H       -24.2619567536       -5.6954216513       -1.7567389852
 H       -24.1758610653       -3.4336999607       -1.5550434857
 H       -23.8058814449       -3.0726440901       -3.2637895579
 H       -22.8137332645       -2.3814323030       -2.0858495165
 Na      -18.8449140089       -4.6215142160       -2.0082326561
 Na        7.1987871862        0.6654627712      -16.9723584422
