232

 C       -22.5810372743       -5.2852364995        0.5014270715
 C       -21.7131385628       -5.0000904348       -0.7038275368
 O       -20.5238314503       -4.8733993829       -0.6910560562
 C       -22.4283690687       -4.8943215177       -2.1588496106
 C       -21.3429893930       -4.4161139822       -3.1659005929
 O       -20.6323521209       -3.4511532233       -3.0328793626
 C       -21.3995816253       -5.0056661121       -4.6245015574
 C       -20.2291473744       -4.6944498182       -5.5180938336
 C       -18.7681540973       -4.7921891311       -4.9899303765
 O       -18.4720243220       -5.2413441964       -3.9127014466
 C       -17.6464825028       -4.0323627916       -5.9742733117
 C       -17.4098725801       -2.8213857037       -5.0189826531
 O       -18.0672559571       -1.8262072261       -5.1710867993
 C       -16.5465304456       -3.0528020298       -3.7643388424
 C       -16.7256883874       -1.9157344732       -2.7835260814
 C       -16.3021416958       -2.3872218707       -1.3799552583
 O       -16.8964127841       -3.3745742743       -0.9108529145
 C       -14.9570287216       -1.7033248896       -0.8232962213
 C       -13.7285557406       -2.2870815337       -1.7831580351
 O       -13.4458845834       -1.7930498885       -2.8511117855
 C       -12.9190795565       -3.3361446418       -1.1743137482
 C       -11.4271996912       -3.1829047782       -1.4418211507
 C       -10.7068276734       -4.4947141772       -1.0987920478
 O       -11.3033572676       -5.5178757134       -1.2080847984
 C        -9.3602498792       -4.4679856895       -0.4074499929
 C        -8.4140285947       -3.3670431981       -0.9193733188
 O        -8.5818618176       -2.2275483371       -0.5022268517
 C        -7.3882540840       -3.6252743839       -2.0421800903
 C        -6.5946515628       -2.2932741949       -2.3802878731
 C        -6.2292085652       -2.2009899244       -3.8953481815
 O        -6.7597340265       -2.9834198498       -4.6590249164
 C        -5.3336656962       -1.1251453230       -4.4947635827
 C        -4.1350836507       -1.6829090433       -5.4087677921
 O        -2.9715041683       -1.5198653652       -5.0098809515
 C        -4.4202439425       -2.1655005090       -6.8211934160
 C        -3.2324918156       -2.0803888193       -7.7945858007
 C        -3.0724959824       -0.8531331634       -8.7461100486
 O        -3.9103661128        0.0498153226       -8.7613412562
 C        -1.6685081514       -0.8278350859       -9.4818208286
 C        -1.5307499964       -1.8938430394      -10.7216427322
 O        -1.7195959714       -3.0442941091      -10.4683542360
 C        -0.8389499395       -1.4878466551      -11.9963157029
 C        -0.1801605941       -2.6450485548      -12.7432154944
 C         0.5674751039       -2.2536936080      -14.0340823149
 O         1.1125119635       -1.2116716528      -14.2742660828
 C         0.8362236079       -3.3661470652      -15.1487838224
 C         2.2425329938       -3.1766733276      -15.7178283997
 O         2.4682945278       -2.9875661372      -16.9360914174
 C         3.4231376695       -3.5327394861      -14.8186948304
 C         4.7128348879       -3.8387811695      -15.6155543452
 C         6.0362798578       -3.6815645534      -14.7748525578
 O         5.9905895152       -3.3879568387      -13.6040970014
 C         7.3694072583       -3.7516240037      -15.5384589557
 C         7.8214413963       -2.2553195024      -15.8914931750
 O         6.9302940897       -1.5049263117      -16.2446164583
 C         9.2440938407       -1.6736732841      -15.6535377834
 C         9.5654535559       -1.2130701840      -14.2584894705
 C         9.3219213602        0.2678840672      -14.1044605426
 O         8.6642781143        0.8523261402      -14.9116908087
 C         9.6355271657        1.0374205566      -12.8191399036
 C         8.0786740036        1.3798575372      -12.3005360783
 O         7.5688048846        0.5986646858      -11.5878075611
 C         7.5817492183        2.7176748303      -12.6749830104
 C         6.0714869487        2.7494031289      -12.5952253546
 C         5.4127468092        2.1794289627      -13.9091471330
 O         6.1051034894        1.5701642205      -14.6525252302
 C         3.8023704258        2.1273604378      -14.0987859469
 C         3.2818557843        1.6954037605      -15.6762711407
 O         2.7518541257        2.4674691097      -16.3491325689
 C         3.8350535788        0.3277703539      -16.2932673188
 C         3.4498393187        0.1704554782      -17.7743541391
 C         4.4972475966        0.7913196178      -18.7806072685
 O         5.4737822499        1.3608438181      -18.3266391123
 C         4.2035449763        0.8202027393      -20.3936428978
 C         5.5619636924        1.3326367525      -21.0564482106
 O         6.3389702498        0.5735685461      -21.6384173217
 C         6.0337810285        2.7919019086      -20.9308949568
 C         7.5446557080        3.0074076559      -20.8301310465
 C         8.2263897701        2.2860357722      -19.6240870237
 O         7.8793976024        2.4711317238      -18.4904645489
 C         9.3864928253        1.3072774989      -20.0293542805
 C         8.7337111899       -0.1837173586      -20.0197125608
 O         8.1685571476       -0.5648214889      -19.0043327138
 C         8.7723409120       -1.1553464720      -21.2494481368
 C        10.0140247838        1.6854822637      -21.3565043954
 C        10.4060279893        1.2557308338      -18.9039712930
 C         3.7708455402       -0.3942102903      -21.1049592663
 C         3.1556829494        1.9322017372      -20.6131529441
 C         3.4510875493        0.9953049681      -13.1390080062
 C         3.1001127482        3.4291480729      -13.7079385363
 C        10.4810907019        0.3628460253      -11.7771105482
 C        10.4809676473        2.2951473003      -13.1706363160
 C         8.3474626910       -4.6006346474      -14.7250381964
 C         7.3457637422       -4.6694075536      -16.9168611353
 C         0.5637140755       -4.7482999904      -14.7701256702
 C        -0.1896418640       -2.9021641690      -16.1981220474
 C        -1.5630120611        0.6294518031       -9.9877888656
 C        -0.4586366301       -1.1469752805       -8.4296155127
 C        -6.2102170633       -0.2766167437       -5.4240582239
 C        -4.5879651871       -0.3510688117       -3.3564727492
 C        -9.8091992250       -4.0335053350        1.0095716589
 C        -8.7962168421       -5.8635866027       -0.4100437558
 C       -14.8798805111       -0.1011171886       -1.1957470435
 C       -14.7789832539       -1.9616625133        0.7159404672
 C       -16.4719963603       -5.0184901192       -6.2008437353
 C       -18.1809440851       -3.6562260614       -7.3345721380
 C       -23.0598709546       -6.2348466302       -2.6269163033
 C       -23.4885023155       -3.8046493489       -2.0057051657
 H       -22.1486159558       -4.8487005708        1.3939102147
 H       -22.7253075367       -6.3954031800        0.6777003139
 H       -23.5993564626       -4.9370985719        0.3824884667
 H       -22.3316933973       -4.7192266899       -5.1767311157
 H       -21.4385381944       -6.0907979627       -4.6357216891
 H       -20.3425514380       -3.6728460806       -5.8378199689
 H       -20.3190130204       -5.2729278401       -6.4504070495
 H       -15.4949507096       -2.9854943731       -4.1161004130
 H       -16.7566809181       -4.0322662458       -3.4377764882
 H       -17.6475496326       -1.4115597607       -2.7256583988
 H       -16.1029725217       -1.1149269729       -3.1761707979
 H       -13.2379474510       -4.2215758262       -1.6288031495
 H       -13.2070241586       -3.4934627008       -0.0954012666
 H       -10.9616469475       -2.2930557631       -0.9635726678
 H       -11.2938523905       -3.0977411222       -2.5085056228
 H        -7.8504470857       -3.9349684192       -3.0564434801
 H        -6.6687151330       -4.4622308789       -1.7389250055
 H        -5.6592840826       -2.2227022745       -1.8359139536
 H        -7.2071741845       -1.4116501354       -2.2260944700
 H        -5.3328015106       -1.6909236807       -7.2168360720
 H        -4.7748649280       -3.2014073848       -6.6599490541
 H        -3.4397422089       -2.8801232082       -8.4297838363
 H        -2.3414571055       -2.2779792871       -7.2707790368
 H        -0.2100730412       -0.6358177445      -11.8504942150
 H        -1.5730071940       -1.0826535828      -12.6800468519
 H        -1.0068045904       -3.3374108318      -13.1163893612
 H         0.3752792416       -3.3282478371      -12.0570522095
 H         3.0749594856       -4.3375160830      -14.1472763565
 H         3.4581727794       -2.6758865143      -14.1209204296
 H         4.7923527124       -3.0096230254      -16.3535531868
 H         4.7437960811       -4.8114404747      -15.9255997463
 H         9.4179734816       -0.8691342237      -16.3337749637
 H         9.9570097410       -2.4727606992      -16.0112623434
 H        10.5233405450       -1.5849890222      -14.0349977171
 H         8.8726302769       -1.7840397479      -13.5683681980
 H         7.9141831870        2.7701803144      -13.7909245526
 H         8.0139011664        3.5350017895      -12.1029174715
 H         5.7832108923        3.8133691036      -12.4933611306
 H         5.9258544532        2.0226416738      -11.7952740616
 H         3.7149615286       -0.5004936719      -15.6332076527
 H         4.8887173790        0.3591136404      -16.1998877339
 H         2.5435420339        0.8155661373      -18.0250014827
 H         3.1810344039       -0.9077931695      -17.9515837293
 H         5.5049358646        3.1637330001      -20.0057802294
 H         5.6331197444        3.3592643382      -21.8281391285
 H         7.5815614620        4.0816608858      -20.5198158842
 H         8.0661568854        2.8769485958      -21.7677446069
 H         7.9864928862       -0.9931896664      -21.8854501197
 H         8.6260623090       -2.2114827876      -20.9510418922
 H         9.5806629903       -0.9220531588      -21.9766930671
 H        10.8703335362        0.9863166200      -21.5072667275
 H        10.4673182955        2.6672905373      -21.3497645008
 H         9.5894837514        1.6850186568      -22.2571202578
 H        11.1455531857        0.5135714494      -19.1454893352
 H         9.9122623785        1.1184659563      -17.9379167683
 H        11.0406006382        2.1181007779      -18.7678961145
 H         4.3773160958       -1.2690903114      -20.7979545561
 H         3.8553467911       -0.2604630317      -22.1628488413
 H         2.6771835522       -0.5757900525      -20.7682984537
 H         3.4958634034        2.9572481729      -20.3075972983
 H         2.2530010986        1.8726149614      -19.9312758675
 H         2.9528515498        1.9518640837      -21.6938583605
 H         4.1354312454        0.1508337428      -13.1013474877
 H         2.4794738016        0.6145043756      -13.5591116332
 H         3.3005331580        1.3609694596      -12.0778880887
 H         3.8844628937        4.0071312989      -13.1694389514
 H         2.4226153325        3.1864506907      -12.8898256108
 H         2.5861663992        3.8805453399      -14.5854737549
 H        10.6623321402        1.0263734882      -10.9648565591
 H        11.4235237714        0.0455307360      -12.3025801297
 H        10.0438402293       -0.5330638265      -11.2993928856
 H        10.1466177397        2.9902596592      -13.9989889778
 H        11.5199632129        1.9813085407      -13.4278969169
 H        10.4635553666        3.0398767212      -12.4216438690
 H         8.0911520690       -5.6783861578      -14.6036634429
 H         8.3726146688       -4.1070283566      -13.7550251853
 H         9.4252558218       -4.5694976413      -15.0380376759
 H         6.8514178515       -5.6284803423      -16.8474245153
 H         8.3561313329       -4.8388179618      -17.1129966835
 H         6.7861884211       -4.0989689616      -17.7018885123
 H         0.9992088539       -5.0069474212      -13.8212010527
 H         0.9256247797       -5.5040899329      -15.5089652048
 H        -0.5439751557       -4.8354330580      -14.6160741113
 H         0.0224999929       -1.8968012476      -16.4918715411
 H        -1.1391372777       -2.8359471978      -15.6875931148
 H        -0.2878079955       -3.5011061739      -17.0657502553
 H        -2.1213600956        1.3326215962       -9.4693165021
 H        -2.0392127769        0.6807457953      -10.9932556904
 H        -0.5851463668        1.0090583321      -10.0964595688
 H        -0.5730425080       -2.0450882099       -7.8191249284
 H        -0.4723757698       -0.3014254732       -7.7038912968
 H         0.4902410213       -1.2075999178       -9.0205938854
 H        -6.9385138558       -0.9183815567       -5.8932645751
 H        -5.6755158674        0.2456434217       -6.1446834622
 H        -6.8729528353        0.4429540857       -4.9179707397
 H        -5.2849097283        0.0096387145       -2.6061577721
 H        -4.2372367179        0.6166620799       -3.6678613074
 H        -3.7864232083       -0.9222217345       -2.8504002929
 H       -10.5586381186       -4.6977931851        1.3416807941
 H       -10.1518753793       -2.9743708683        1.0537830664
 H        -9.0466918917       -3.9721320898        1.7267485612
 H        -9.6326605508       -6.6119895689       -0.3418304496
 H        -8.0134551848       -5.9701047179        0.3126075439
 H        -8.3905388202       -6.0664202631       -1.3782362665
 H       -15.8835671559        0.3775461245       -1.0993741434
 H       -14.4540559057       -0.0198593930       -2.1415949016
 H       -14.0449113798        0.3265871286       -0.6497649968
 H       -13.8106152708       -1.7013146486        1.0342079708
 H       -15.0391170555       -2.9406867894        1.0949366350
 H       -15.5590249050       -1.4002797582        1.1611231702
 H       -16.7905060809       -5.8568864858       -6.7460275643
 H       -16.0620284879       -5.4541014077       -5.2369610987
 H       -15.6337282862       -4.5614787219       -6.8272713500
 H       -18.8442587257       -2.8730258287       -7.4307567642
 H       -18.8469039075       -4.3960509185       -7.7393397060
 H       -17.3457280758       -3.4502146473       -8.0134674608
 H       -22.2813736144       -6.9938541683       -2.8169486658
 H       -23.5589281482       -6.0452168097       -3.5312011831
 H       -23.7588116959       -6.6304164589       -1.9059014016
 H       -24.2710385202       -4.0104708686       -1.2475624084
 H       -24.0910768597       -3.5823493115       -2.8980887226
 H       -22.8888155103       -2.8594840742       -1.6984328179
 Na      -18.8084497806       -4.5102181308       -1.7065893504
 Na        7.3507865699        0.7040667837      -16.9288062551
