232

 C       -17.6772279403      -13.9854379272       -0.2669979899
 C       -16.8204532649      -13.9083497687       -1.5787404330
 O       -16.8690139882      -12.9473577732       -2.3346557447
 C       -15.7025585567      -15.0252787100       -1.6226088500
 C       -15.1379789208      -15.0945139112       -3.1382254670
 O       -15.8990731602      -14.8654889042       -4.0588769339
 C       -13.6131702302      -15.5451631916       -3.2542526245
 C       -12.9493296245      -15.3701224587       -4.6215245375
 C       -13.3196236600      -13.9634403181       -5.1541517902
 O       -13.5254040585      -12.9907880879       -4.3588855164
 C       -13.4877069924      -13.6405940206       -6.7734974726
 C       -14.5394853146      -12.4851982023       -6.9472439421
 O       -15.7024307235      -12.7267862613       -6.7469285779
 C       -14.1689787091      -11.1339809004       -7.6022718452
 C       -15.3979669308      -10.2738268715       -7.6814935490
 C       -15.8997970901       -9.6118116403       -6.3854190415
 O       -16.2055399332      -10.2776237522       -5.4070780695
 C       -16.1700140813       -8.0907047685       -6.4219179197
 C       -14.7971463620       -7.3337671410       -6.7680453114
 O       -13.7192693064       -7.9825295018       -6.6571229411
 C       -14.7857651157       -5.8261341555       -7.0738264467
 C       -13.3873148535       -5.3424374082       -7.4027950951
 C       -13.3922852179       -3.8708775667       -7.3390503643
 O       -14.1250094997       -3.2986156269       -6.5955738664
 C       -12.3094739200       -2.9629247481       -8.1561641077
 C       -10.9409094346       -2.9805754073       -7.3061788555
 O       -10.8573422699       -3.7684321626       -6.4017879289
 C        -9.8462848764       -2.0052372085       -7.7048392136
 C        -9.4746240125       -1.1208167794       -6.5366307044
 C        -9.6622276526        0.3600285819       -6.8892399188
 O       -10.2179071641        0.6962508845       -7.9160640022
 C        -9.0540116051        1.5283610644       -5.9553500721
 C        -7.6536565593        1.6385609199       -6.5057496747
 O        -6.7549844106        0.8936973348       -6.1634667047
 C        -7.3620788820        2.7451438247       -7.5066070829
 C        -5.9886002261        2.6400405728       -8.0765011110
 C        -5.6112247888        3.6277279606       -9.2811897187
 O        -5.6787632923        4.7864708668       -9.0200003724
 C        -5.4331910786        2.9453993481      -10.5695761910
 C        -4.2185183189        1.9557416834      -10.6089085908
 O        -4.2346884624        0.8268808676      -11.0530154091
 C        -2.9533471422        2.6713487957      -10.0791165743
 C        -1.7760893841        1.6630634769       -9.9678229869
 C        -0.3753633643        2.3283721702       -9.7196030511
 O        -0.0569498505        3.3255215623      -10.2716779451
 C         0.6472253173        1.4551242478       -8.8721507611
 C         2.0461260954        2.1385942437       -9.2692347602
 O         2.8946770578        1.6169300557       -9.9500226570
 C         2.3352229494        3.6555430857       -8.8412038245
 C         3.4486072101        4.3480443530       -9.6543251983
 C         2.9349423296        5.5384245982      -10.4866740732
 O         1.7973198909        5.9722036984      -10.3541379260
 C         4.0893231401        6.0625101439      -11.5032063433
 C         3.9424303925        5.0611935984      -12.6409288144
 O         4.8429929958        4.1699107223      -12.6506147151
 C         2.7168675288        5.1052589158      -13.6054045573
 C         3.0315560732        6.0663265324      -14.7928426388
 C         3.4041512277        5.2611815134      -15.9773194935
 O         3.7546695476        4.0852035140      -15.9292142239
 C         3.4208343812        5.8543924547      -17.4379710298
 C         4.8773316479        6.0388258583      -18.0110388909
 O         5.1901286718        5.6364082471      -19.1083766862
 C         5.9466818340        6.7324967129      -17.0860267860
 C         7.3174962950        6.0864787152      -17.2153098276
 C         7.4711074671        4.7209581717      -16.5732162173
 O         6.6385105406        4.4592676983      -15.7078522722
 C         8.6268542368        3.7396541296      -16.9716885092
 C        10.0160259591        4.3365232552      -16.5313465385
 O         9.9478222568        5.2953800393      -15.8036063842
 C        11.4650003191        3.7244454080      -16.7285473213
 C        12.0632336595        3.2808372864      -15.4042062878
 C        11.6234096139        1.8539496980      -15.1837490958
 O        10.8936885339        1.3436895452      -16.0673942824
 C        12.1077340714        1.0612503971      -13.9724880916
 C        11.0012147347        0.0700281353      -13.4909166712
 O        11.1227182021       -1.1177105457      -13.5762213114
 C         9.6843905209        0.6810714850      -12.9989870334
 C         8.6650059110       -0.4416247396      -13.4167127146
 C         7.1701209853        0.0816511198      -13.2017086645
 O         7.0611290375        1.3096466965      -13.1916990232
 C         5.9289064296       -0.8837819460      -13.2306850431
 C         4.8150923461       -0.5019471344      -14.3206982553
 O         4.4570300457        0.6302065180      -14.6131679600
 C         4.0987444253       -1.6383131838      -15.0922459991
 C         6.4173856962       -2.4041913825      -13.2323267782
 C         5.2100262582       -0.5698741320      -11.7931522556
 C        13.3494580917        0.2007259509      -14.3172142012
 C        12.5971186684        1.9978201439      -12.8238858147
 C         8.4878712315        2.3033867374      -16.3774348161
 C         8.6188180134        3.4741566717      -18.5099487103
 C         2.6510498801        4.8664116799      -18.3871665864
 C         2.7964990039        7.2441663001      -17.5844549733
 C         3.7514052759        7.4998840215      -11.8475263169
 C         5.4441475080        5.9046983250      -10.8388738133
 C         0.3352601372        1.3070675691       -7.4483059467
 C         0.7834054378       -0.0061812308       -9.5489067697
 C        -6.6927873653        2.1556242881      -11.0228586098
 C        -5.0689687493        3.9440279693      -11.7764365294
 C        -9.9207800902        2.8330666632       -6.0857241362
 C        -9.0364781342        1.1036639652       -4.4314647084
 C       -11.9777815400       -3.5655106129       -9.5332716509
 C       -12.7467591687       -1.5475453853       -8.3276690370
 C       -17.3155250534       -7.6406720702       -7.4854021661
 C       -16.7288393748       -7.7192824333       -5.0619509661
 C       -12.1084128937      -13.3110195937       -7.3955050251
 C       -14.0171671630      -14.9522411468       -7.5098155555
 C       -14.6563145624      -14.5979195281       -0.6138206310
 C       -16.1868824945      -16.4499494972       -1.3885984083
 H       -17.1564553095      -13.4020053949        0.4603640710
 H       -17.8379732736      -15.0184388974        0.0318387409
 H       -18.6118568783      -13.4076451253       -0.4384244189
 H       -13.5338194094      -16.5684615660       -2.8739463572
 H       -13.0831971115      -14.8403685401       -2.5185533038
 H       -13.1680381452      -16.0415180874       -5.4205327456
 H       -11.8570653925      -15.5059640877       -4.4164776303
 H       -13.6895809881      -11.3440751943       -8.5633742769
 H       -13.2847547765      -10.6952985707       -7.0215359548
 H       -16.1313394555      -10.9348505163       -7.9472471089
 H       -15.3622172157       -9.5593160307       -8.4995465144
 H       -15.3412026009       -5.3299332818       -6.2751349678
 H       -15.3186480175       -5.6246627951       -7.9956812014
 H       -13.0323724569       -5.7595791762       -8.3650568362
 H       -12.6978390144       -5.6899632945       -6.6622920991
 H       -10.2727114437       -1.3067336095       -8.4888651946
 H        -9.0343123111       -2.5338103827       -8.1767306221
 H        -8.5631293347       -1.3471565735       -5.9570899134
 H       -10.2779363355       -1.3061835504       -5.8366906922
 H        -7.5539205793        3.7734340176       -7.2440051422
 H        -8.1058257523        2.5332937882       -8.3557619246
 H        -5.8587469181        1.6503159408       -8.3692951263
 H        -5.2984930954        2.8168858387       -7.2480605918
 H        -3.0131799879        3.1137535077       -9.1507534859
 H        -2.5870938970        3.3685546860      -10.9181573568
 H        -1.6522780746        1.1383139940      -10.9276632391
 H        -2.0146496285        0.9025795695       -9.3284190095
 H         2.6588137304        3.6738221817       -7.7600577570
 H         1.3421740776        4.1428197902       -8.8393201257
 H         3.7543295843        3.5545129591      -10.3813589780
 H         4.3056845928        4.6696131652       -9.0212516334
 H         1.8508413561        5.4541341693      -13.0129674394
 H         2.5466270289        4.0437509419      -13.8987831426
 H         3.8078832869        6.7837112116      -14.4594916700
 H         2.1165812334        6.6976057982      -14.9677495169
 H         5.5736522421        6.6632115946      -16.0233116153
 H         6.0987282054        7.7768829558      -17.4661371143
 H         8.1386789989        6.7499213987      -16.9034044650
 H         7.4228253175        5.9201011271      -18.1833170463
 H        11.9987429180        4.5682505102      -17.0489887582
 H        11.4426752538        2.8973756738      -17.4665010857
 H        11.7811721478        3.9059113734      -14.6391067385
 H        13.1119038706        3.4885016329      -15.3847592672
 H         9.4399058119        1.5181676802      -13.5586108777
 H         9.6663639639        0.9955422516      -11.9204107196
 H         8.8478530698       -1.3943928703      -12.9601404037
 H         8.8807323762       -0.7191347348      -14.4501405528
 H         4.7610428608       -1.9075905664      -15.9626292909
 H         3.1692362577       -1.1996759606      -15.4780048369
 H         3.9256790909       -2.4348634800      -14.4431904729
 H         5.7339717253       -3.0788966483      -12.8540526323
 H         7.1015834039       -2.4137866797      -12.4407705216
 H         6.8294077273       -2.6758132698      -14.1751685498
 H         5.3182744803        0.4710527039      -11.4878447352
 H         5.5145664745       -1.2062399983      -11.0308168657
 H         4.1873118670       -0.7275209870      -11.8616856184
 H        14.1420224658        0.7636555106      -14.7490274275
 H        13.1387388265       -0.4600072079      -15.1336736915
 H        13.7087952812       -0.4424009439      -13.4968704103
 H        13.3786020037        2.6777675672      -13.1679822283
 H        12.8754787840        1.3729560589      -11.9962164747
 H        11.7869308330        2.5906530480      -12.3627398582
 H         8.5676453079        2.2522203060      -15.3135993337
 H         9.2023829638        1.6872274417      -16.8841703313
 H         7.4645583253        2.1939003310      -16.6703424554
 H         8.3877942300        4.3970814974      -18.9818246410
 H         7.9815887690        2.7711066133      -19.0190368480
 H         9.6534057064        3.1875861161      -18.8041820703
 H         1.6274540285        5.1390985331      -18.4596804504
 H         2.7284864275        3.8915198784      -17.9011183895
 H         3.0389944213        4.9360572960      -19.4017665021
 H         2.6201926931        7.5084557420      -18.6482482530
 H         3.4002263068        7.9745689373      -16.9832653572
 H         1.7944207889        7.2128805930      -17.1505849682
 H         3.9128185264        8.0998543742      -10.9275296023
 H         2.7187400370        7.5192690183      -12.0272789354
 H         4.3168604655        7.9893954410      -12.6631720781
 H         6.3078902089        6.2108442835      -11.5034087926
 H         5.5835139767        4.8750040980      -10.6891346255
 H         5.3851269387        6.5484928184       -9.9661226402
 H         0.6211752371        2.0815081678       -6.7144512097
 H         0.6591863616        0.3074961523       -7.0783695039
 H        -0.7536174304        1.1567843504       -7.3245346398
 H        -0.0955368473       -0.6102939879       -9.2242560670
 H         1.7115744446       -0.4326412174       -9.2590605259
 H         0.9400198577        0.0074066256      -10.6327515483
 H        -6.9585216958        1.3834791011      -10.1784150214
 H        -6.5375640455        1.5364339210      -11.8954539935
 H        -7.6341406024        2.7221162535      -11.2150657086
 H        -4.9274451481        3.3084961325      -12.6801779363
 H        -4.1755161707        4.4795180474      -11.5935030731
 H        -5.8664989854        4.6305085075      -11.9560930045
 H       -10.9070169812        2.6773335477       -5.7420066621
 H        -9.9880068734        3.1927290647       -7.1008373872
 H        -9.4722662149        3.5527562547       -5.3303869096
 H        -8.6655271232        1.8966199321       -3.7545068614
 H        -8.3715780163        0.2393912319       -4.3679758525
 H       -10.0403047275        0.8216195020       -4.1697130375
 H       -11.3391629607       -2.8317087666      -10.0667361817
 H       -12.9436054304       -3.6876568637      -10.0136623076
 H       -11.5158441882       -4.5475174921       -9.4158294926
 H       -13.7359038351       -1.5753540454       -8.8452709865
 H       -12.0941567147       -1.0289613204       -9.0117573505
 H       -12.8237934368       -0.8204277102       -7.4249610314
 H       -16.8675568050       -7.7639003296       -8.5382764241
 H       -17.5914344888       -6.6273710313       -7.2450587902
 H       -18.1847528672       -8.2777184286       -7.2819763470
 H       -16.0127528472       -7.9159002821       -4.1902085418
 H       -17.4354692740       -8.4582770597       -4.6910275968
 H       -17.0723146855       -6.6798994379       -5.0363819210
 H       -11.6262373995      -12.3010242348       -7.4042469511
 H       -12.0862230234      -13.6408298697       -8.4714205120
 H       -11.4340715454      -13.9367119260       -6.8224949705
 H       -14.8960440354      -15.4169090074       -6.9725982091
 H       -13.1321757357      -15.6533649821       -7.5561336714
 H       -14.4178758694      -14.7475439351       -8.5310692422
 H       -14.3347319217      -13.6404829722       -0.8779121089
 H       -13.7907484900      -15.1537604023       -0.6441209528
 H       -15.0846112105      -14.5894161441        0.3956807585
 H       -17.0311611818      -16.6818278086       -1.9955260410
 H       -16.4630835908      -16.6660158297       -0.3725255686
 H       -15.3858327986      -17.1543225327       -1.6514420865
 Na      -16.0827731851      -12.5275920310       -4.5156039614
 Na        5.4480333999        2.7184456015      -14.5790507312
