232

 C       -22.0635908318       -5.8932002076        0.7201245676
 C       -21.3169453369       -5.4202308289       -0.4591758312
 O       -20.1546303446       -5.2523894480       -0.5271822467
 C       -22.2265493593       -5.1689376288       -1.7977350109
 C       -21.3329080773       -4.4568613231       -2.9977919622
 O       -20.7805741564       -3.4194180648       -2.6912237700
 C       -21.3319270338       -4.9625113310       -4.4241024440
 C       -20.2024642069       -4.1882033630       -5.2309247491
 C       -18.7176152821       -4.6194222905       -4.9288910922
 O       -18.2539440534       -5.0772886063       -3.8907463843
 C       -17.7280024916       -3.9455006517       -5.9867015581
 C       -17.2101353631       -2.4090421817       -5.3549089274
 O       -17.5346123845       -1.3841349997       -5.8697549225
 C       -16.3585198431       -2.5054732138       -4.0843788612
 C       -16.6276739574       -1.3959370365       -3.0325385678
 C       -16.1559714626       -1.9917294122       -1.7223526755
 O       -16.7624430460       -2.8884790891       -1.1414137530
 C       -14.8423030817       -1.5517157607       -1.1362985380
 C       -13.6290444986       -2.2614539758       -1.9096121615
 O       -13.1498789157       -1.7719472445       -2.8911919903
 C       -13.0471430132       -3.5295290276       -1.2681920110
 C       -11.6971545966       -3.0938783914       -0.5631303851
 C       -10.5988272263       -4.2033131492       -0.7751810734
 O       -10.7834366071       -5.0667936717       -1.6374154148
 C        -9.1450766137       -4.0323521276       -0.2414112951
 C        -8.5079200323       -3.0270208092       -1.2592855219
 O        -8.2449841984       -1.8970126514       -0.8346892545
 C        -8.0729336915       -3.3938142656       -2.6552552086
 C        -6.9057048291       -2.5124052656       -2.9262756919
 C        -6.3337774288       -2.5530356645       -4.3575042617
 O        -6.4340587409       -3.4449413176       -5.1677871804
 C        -5.5902046892       -1.2046050720       -4.8162150105
 C        -4.4002252553       -1.6830685215       -5.7240178586
 O        -3.3559719108       -2.1237540452       -5.2212567293
 C        -4.6183715772       -1.6712672965       -7.2214394756
 C        -3.3010100301       -1.4483531936       -7.9508155345
 C        -3.2861609258       -0.8447591541       -9.3939544538
 O        -4.3032587932       -0.7391049416      -10.0272668808
 C        -1.9471688441       -0.3506015690       -9.9375245584
 C        -1.3911478523       -1.6247724797      -10.7722188895
 O        -1.5920967654       -2.6849471507      -10.3034584611
 C        -0.3612447874       -1.4695590383      -11.9405471879
 C        -0.3885963665       -2.7488057272      -12.7902765572
 C         0.5434790741       -2.6292415101      -13.9649322546
 O         1.2040678781       -1.6261196453      -14.0418565085
 C         0.6905659253       -3.7950329494      -15.0401896207
 C         2.0771945589       -3.5672453285      -15.7732859908
 O         2.0946931058       -2.8857822211      -16.8369227499
 C         3.3798125431       -4.0202066959      -15.1138010106
 C         4.6485359090       -3.6425705994      -15.9165281314
 C         5.8645303708       -3.5031556502      -14.7987424122
 O         5.5422329620       -3.3675549638      -13.6477851753
 C         7.3965486504       -3.5266223695      -15.2615859370
 C         7.8637515249       -2.0599418189      -15.5657467873
 O         7.0517607070       -1.2136000880      -15.9211286601
 C         9.4296571500       -1.7941618906      -15.3769195774
 C        10.0101144720       -1.1870208284      -14.0593177691
 C         9.7852132215        0.3744079166      -14.0427381765
 O         9.7004882191        1.1338608415      -15.0146883325
 C         9.9317291441        0.9731003812      -12.5873748861
 C         8.4096485044        1.0257682173      -11.9899941906
 O         8.1804691936        0.4771741311      -10.9879533856
 C         7.3813995754        1.7104662783      -12.9640849296
 C         5.8575642677        1.1937859002      -12.9566472343
 C         5.0542682004        1.7268478664      -14.2696555867
 O         5.6028252503        1.8044816976      -15.3449044900
 C         3.5991556390        2.1628682140      -14.2210103603
 C         2.8456051290        1.6684688852      -15.6916779875
 O         2.3695001063        2.4898689073      -16.3221098158
 C         3.1468937852        0.1702363225      -16.0762913471
 C         3.2309738302       -0.0710526589      -17.5841905631
 C         4.3035057934        0.6930639225      -18.4597677866
 O         5.4117093469        1.0261695747      -18.0676440392
 C         3.9307198339        0.8440069094      -19.9454635107
 C         5.2308770808        1.4150410985      -20.7560858916
 O         5.5182735075        1.0073007864      -21.8680468023
 C         5.8900643384        2.7074925903      -20.1988715663
 C         7.3273386252        2.7543750935      -20.5908115563
 C         8.3022595658        2.0681979392      -19.6253713070
 O         8.3211223864        2.3488451554      -18.4618026756
 C         9.3883206316        0.8495335618      -20.3254097960
 C         8.9081011441       -0.3847490081      -19.6105482936
 O         9.1283719566       -0.5505996495      -18.4025377303
 C         8.2273332726       -1.4942983289      -20.2989743504
 C         9.2047022638        0.8218269407      -21.8482140540
 C        10.8164782374        1.3002452293      -19.9261122723
 C         3.5127869748       -0.4083326452      -20.6890183339
 C         2.8225256056        2.0556572737      -19.9490007981
 C         2.8661759791        1.5625947897      -13.0412522584
 C         3.4863227362        3.6639954649      -13.9760512045
 C        10.6513742647        0.2286995822      -11.5286683610
 C        10.3747423685        2.3791269100      -12.6649628138
 C         8.1979244789       -4.2755277174      -14.1740218763
 C         7.4698123489       -4.4554052540      -16.5989331684
 C         0.6134353553       -5.2193385762      -14.4074088889
 C        -0.5851449537       -3.6213844762      -15.9987916823
 C        -2.0581039008        0.9729619757      -10.7126402213
 C        -0.8382950123       -0.2244895329       -8.8467724684
 C        -6.5990685429       -0.3817798258       -5.6176375865
 C        -4.8637154317       -0.3419690641       -3.7062154070
 C        -9.1061355890       -3.4183452469        1.1818428229
 C        -8.4044508264       -5.4269947983       -0.3406376954
 C       -14.5646534665       -0.0209617222       -1.0028507795
 C       -14.9734749314       -2.0865251036        0.3246521916
 C       -16.4376200093       -4.8162472270       -6.1562811677
 C       -18.2326375865       -3.7669564763       -7.4375703938
 C       -22.8045717828       -6.5801128425       -2.1555731153
 C       -23.2858266505       -4.0691115429       -1.4372586317
 H       -21.4535893373       -5.9288240976        1.5608959611
 H       -22.4941885905       -6.8901683025        0.6142781471
 H       -22.9091620825       -5.2842848020        0.8903300375
 H       -22.3509198143       -4.8104487590       -4.8393023972
 H       -21.1947137789       -6.0040569246       -4.5514067661
 H       -20.2965226767       -3.1231639312       -5.1945669420
 H       -20.4204727651       -4.5812909474       -6.2724958907
 H       -15.2212361795       -2.4291168096       -4.4030239148
 H       -16.3965789537       -3.5294298544       -3.7146318565
 H       -17.7312073443       -1.1582691126       -3.0678618573
 H       -16.0457591749       -0.4909105560       -3.3393032346
 H       -12.7948619808       -4.1044496949       -2.1462499672
 H       -13.7958318254       -4.0676415169       -0.6259104818
 H       -11.7886789404       -2.8842675316        0.5101103456
 H       -11.2641389348       -2.1646335117       -0.8906255038
 H        -8.8460699503       -3.2476757524       -3.3157754102
 H        -7.9021677781       -4.4379798957       -2.6491036254
 H        -6.0664507899       -2.7523363654       -2.2522670524
 H        -7.1612247030       -1.4692186995       -2.6043466279
 H        -5.2435658161       -0.8221485426       -7.5118402443
 H        -5.0826114709       -2.5881756501       -7.5816971934
 H        -2.6608211988       -2.3732006841       -8.0211571894
 H        -2.5152703390       -0.8742891500       -7.3088979290
 H         0.6699490607       -1.3267769521      -11.5765569790
 H        -0.7462792280       -0.5879756231      -12.4597958044
 H        -1.3837250036       -2.8421392939      -13.1083037042
 H        -0.1450064151       -3.6430227260      -12.2861086302
 H         3.4156014084       -5.0825898340      -15.0076982676
 H         3.4105232489       -3.4802642651      -14.1509312881
 H         4.6099980600       -2.5565902013      -16.3331802119
 H         4.8980994808       -4.4875141215      -16.5283439842
 H         9.6181490735       -1.2498619722      -16.3076222506
 H         9.9902346045       -2.7287885804      -15.6407252577
 H        11.0636279629       -1.4328596248      -13.8724563623
 H         9.5063550300       -1.6518728592      -13.1806554721
 H         7.7395108427        1.6790956649      -13.9948424936
 H         7.4064991414        2.7369045850      -12.6667992913
 H         5.3496705417        1.5742654151      -12.0265035177
 H         5.8358481761        0.0781497510      -13.1150372849
 H         2.1929136881       -0.2846212901      -15.6640028051
 H         3.9463669990       -0.3017589244      -15.4242928239
 H         2.2923052676        0.2193874693      -17.9916711736
 H         3.3496903638       -1.1265739461      -17.7655437586
 H         5.7060080147        2.7724752705      -19.1214927204
 H         5.3505753679        3.4883076267      -20.7056771239
 H         7.7518279531        3.7709589430      -20.5605623837
 H         7.4407803385        2.3882880172      -21.6085085193
 H         8.2037159072       -1.4433577797      -21.3561397718
 H         7.1685155531       -1.5344259144      -19.8739349915
 H         8.6366908522       -2.5357329109      -20.0041390813
 H        10.1454306520        0.4002570249      -22.3992222740
 H         9.2323410200        1.8054299070      -22.3816493317
 H         8.4318721619        0.2766265488      -22.2749734314
 H        11.5811334016        0.5508090815      -20.1501151453
 H        10.9067505673        1.1993011335      -18.8277330471
 H        10.9679259185        2.3245405971      -20.2975811629
 H         4.3157480335       -1.0651923059      -20.4671068310
 H         3.4937407543       -0.1821644635      -21.6901573409
 H         2.5643749157       -0.8792099344      -20.3166007326
 H         3.2993448457        2.9397746296      -19.5855721039
 H         1.9835382151        1.6779168444      -19.4063759272
 H         2.3775011025        2.3064973839      -20.8799474905
 H         3.1497202763        0.5586105976      -12.9182324553
 H         1.7815552605        1.6023346578      -13.1739885395
 H         3.1019982637        2.1072348938      -12.1145334875
 H         3.0882257053        4.1285319670      -14.9200291390
 H         4.4644689810        4.1277367473      -13.8934384037
 H         2.6362333291        3.8460147132      -13.2836042574
 H        10.7118635403        0.6955977733      -10.6150810777
 H        11.6766852611        0.0069496759      -11.8128178301
 H        10.1618527720       -0.7212594327      -11.4346160504
 H         9.6020308165        3.0723670666      -13.0209512143
 H        11.0921335492        2.6768747342      -13.4025375235
 H        10.8380862353        2.7312338947      -11.8128086377
 H         7.4560290720       -4.6688575960      -13.4886109762
 H         8.7137148310       -3.6542456279      -13.5068153972
 H         8.8649609888       -5.0983454100      -14.4250391551
 H         6.7847524093       -5.3091579762      -16.3107470559
 H         8.4966522089       -4.7881152759      -16.7750887488
 H         7.1991381924       -3.8271885264      -17.5503356096
 H         1.5167037632       -5.3447409649      -13.8987250395
 H         0.4946786695       -6.0151874793      -15.1599346623
 H        -0.1744860071       -5.3444778889      -13.6768900222
 H        -0.4623074294       -2.7041103192      -16.6254045286
 H        -1.5357999567       -3.5266759904      -15.3951986479
 H        -0.7962032755       -4.4809122241      -16.6656159680
 H        -2.1510721141        0.7987746417      -11.7951856838
 H        -1.1692355669        1.7380285200      -10.5291970130
 H        -3.0101568320        1.4047378371      -10.3773075774
 H        -0.7852765715       -1.1059256424       -8.2155876933
 H        -0.8942582729        0.7436352963       -8.2984003474
 H         0.0813001135       -0.1607472128       -9.4380268867
 H        -7.0502561289       -1.0628845110       -6.3741011674
 H        -6.2260353626        0.4873198609       -6.1670243281
 H        -7.3953083983        0.0012201861       -4.9051362344
 H        -5.6081026088        0.1405088997       -3.0195063223
 H        -4.2050297889        0.3899605876       -4.2205934584
 H        -4.1678401185       -0.8612545269       -2.9825835685
 H        -9.3197503161       -4.1307842951        1.9743880358
 H        -9.9073545289       -2.6115187871        1.3127247311
 H        -8.1172478567       -3.0345929054        1.4403496863
 H        -9.0709687088       -6.2777783095        0.0021694895
 H        -7.5955957972       -5.4068321317        0.3631694436
 H        -8.1266225999       -5.5050910954       -1.3624977112
 H       -15.5243109117        0.5778717715       -1.0033741765
 H       -13.9932887804        0.2277118887       -1.8693440650
 H       -14.1024637394        0.1635611923       -0.0105554487
 H       -14.0006913615       -1.8532987696        0.8358906482
 H       -15.0346068514       -3.2225255586        0.3489222338
 H       -15.6267323962       -1.5288859883        1.0323756445
 H       -16.6780760131       -5.7537170832       -6.4994572103
 H       -15.9515823468       -4.9079969480       -5.1577298656
 H       -15.6052002171       -4.4069922451       -6.7636073808
 H       -18.7673991320       -2.8961939196       -7.6502699323
 H       -18.9526829306       -4.5936224258       -7.6952413942
 H       -17.4696180183       -3.7978419331       -8.2926465333
 H       -21.9815583067       -7.2691080848       -2.4465933468
 H       -23.5268717368       -6.5375414710       -3.0030329571
 H       -23.3709267498       -7.0234933066       -1.2787010459
 H       -23.9263347772       -4.2435272801       -0.5955716121
 H       -23.8630697504       -3.8145948870       -2.2976489649
 H       -22.7663117841       -3.0997632767       -1.1532090767
 Na      -18.6101950920       -4.2812795042       -1.6889469114
 Na        7.8651166292        0.9801018270      -16.6290462047
