232

 C       -21.9498539650       -6.1025465265        0.7064643798
 C       -21.2848053707       -5.3625286033       -0.5027481018
 O       -20.0377028888       -5.2553490409       -0.4750349514
 C       -22.1597418244       -5.0671063485       -1.7527810106
 C       -21.3837656830       -4.3849311465       -2.8823719446
 O       -20.8522331225       -3.3240590431       -2.6224312004
 C       -21.2060131322       -4.9873565123       -4.3654966357
 C       -20.1197289057       -4.3287561285       -5.2308537642
 C       -18.6915838436       -4.4540926320       -4.9818746725
 O       -18.2519724747       -4.9843882605       -3.9993296942
 C       -17.6825974614       -3.8540388084       -6.0251319268
 C       -17.2025919240       -2.4748612514       -5.4196686373
 O       -17.5407768840       -1.3888249274       -5.8543396237
 C       -16.2756267863       -2.5542084514       -4.2243993134
 C       -16.6091324054       -1.5069445506       -3.1328709635
 C       -16.1225715357       -1.9997732945       -1.7737292579
 O       -16.8267016502       -2.9109358472       -1.2993182300
 C       -14.7581487426       -1.5420744021       -1.0236816267
 C       -13.6017248845       -2.2275163671       -1.8837943144
 O       -13.1585255659       -1.7422526677       -2.9395802653
 C       -13.0438522025       -3.5174529751       -1.2475586153
 C       -11.7739484161       -3.2133919334       -0.4334024608
 C       -10.6092509096       -4.1825932719       -0.7952995482
 O       -10.8104877199       -5.0152787344       -1.6925147418
 C        -9.1767914614       -4.0270196862       -0.2153458167
 C        -8.4549581086       -2.9546988346       -1.1667758557
 O        -8.3092024721       -1.8007403126       -0.8475228220
 C        -8.0981144992       -3.3153991830       -2.6797318947
 C        -6.8981274939       -2.4886737902       -3.0375150179
 C        -6.3236216840       -2.4528184771       -4.4345551246
 O        -6.4031951260       -3.4027892222       -5.1572637263
 C        -5.6200496348       -1.1700048422       -4.9730631312
 C        -4.4510540924       -1.7492194256       -5.8702765979
 O        -3.4314321167       -2.0929925131       -5.3474419129
 C        -4.6242133300       -1.6981327983       -7.3880946237
 C        -3.2476255165       -1.3858978494       -8.0095666709
 C        -3.3002008699       -0.8148755170       -9.3863446953
 O        -4.2740430906       -0.6935197413      -10.1071136269
 C        -1.8937223938       -0.3523930567      -10.0253010275
 C        -1.3961105857       -1.6272710801      -10.7326975462
 O        -1.5867902517       -2.7275349956      -10.2123558321
 C        -0.3633298524       -1.5678780338      -11.9348227730
 C        -0.4949613910       -2.8223014323      -12.7810767916
 C         0.6347516453       -2.6657022836      -13.9477201638
 O         1.2864051258       -1.6773679336      -13.9919859996
 C         0.7542114054       -3.8380948988      -14.9819357152
 C         2.0016359140       -3.5841029445      -15.8218930871
 O         1.9930649728       -3.0071582828      -16.8808274224
 C         3.3386002807       -4.0600985802      -15.2178108523
 C         4.6819177313       -3.5326403789      -15.8602680489
 C         5.8085528277       -3.4504338826      -14.8198279524
 O         5.4865233272       -3.2922115171      -13.6617393111
 C         7.2380743428       -3.5342704789      -15.2109689807
 C         7.8320163797       -2.0551568862      -15.4650421214
 O         7.1220767657       -1.1670924416      -15.9354537050
 C         9.3156712328       -1.7756788551      -15.4309429922
 C         9.9875366615       -1.2091054149      -14.1620192782
 C         9.9520536298        0.2990965860      -13.9896561490
 O         9.6509973669        0.9441443233      -14.9578576335
 C         9.9130170397        1.0038939507      -12.5904370024
 C         8.2975750630        0.9306634667      -12.1426683178
 O         8.1657378865        0.4597941730      -10.9880017961
 C         7.2866351589        1.6601203532      -13.0152191645
 C         5.8322799422        1.0715837178      -13.0741180341
 C         5.1125882957        1.7352742219      -14.2675412534
 O         5.6861167599        1.8475741721      -15.3744077878
 C         3.5591199395        2.1592717150      -14.2453055074
 C         2.9739521768        1.7266734343      -15.5919869780
 O         2.3792023963        2.4657430262      -16.4016974321
 C         3.2082586412        0.2522839175      -16.0622897331
 C         3.2629349562        0.0074947027      -17.5903510382
 C         4.3976489855        0.5932372735      -18.4049897716
 O         5.5684163673        0.7161496256      -18.0636753392
 C         3.9366428589        0.9281777852      -19.9244517414
 C         5.0939454842        1.5165246786      -20.7546707128
 O         5.5043336965        0.8714805169      -21.6857626464
 C         5.8564853708        2.7423402528      -20.1006241670
 C         7.3068664497        2.7793496877      -20.4901834891
 C         8.3038425181        1.9678379854      -19.5719607506
 O         8.4466962707        2.2016694789      -18.3740539606
 C         9.1685749866        0.9504594457      -20.2725893742
 C         8.8892873996       -0.4539895025      -19.5387272053
 O         9.1530516827       -0.3831074380      -18.3317539280
 C         8.1329458249       -1.7210609456      -20.1663645776
 C         9.0883609580        0.8236943169      -21.8491134888
 C        10.6588262678        1.3591879850      -19.9875375338
 C         3.2814068112       -0.2831897429      -20.6235991913
 C         2.8649965352        2.0604123124      -20.0105194400
 C         2.7849327787        1.4193126196      -12.9488768700
 C         3.5802246328        3.7387769612      -14.2101400866
 C        10.7796730907        0.2358085237      -11.6095922649
 C        10.4105669653        2.5746186925      -12.5943672966
 C         8.2062299723       -4.2824548416      -14.1484764546
 C         7.4272268527       -4.3863517611      -16.4829565861
 C         0.6488089581       -5.1723131165      -14.2859433159
 C        -0.3539674308       -3.7112342686      -16.0976607089
 C        -2.2093212323        0.9850762677      -10.8714558704
 C        -0.7798724564       -0.0215480987       -9.0016173456
 C        -6.6424612910       -0.3149619796       -5.6731374506
 C        -4.9046563901       -0.4265194165       -3.7928993680
 C        -9.0724627075       -3.3884892174        1.2305223387
 C        -8.5181972451       -5.4169144072       -0.1880045588
 C       -14.5359116134       -0.0454738608       -1.0686781719
 C       -14.8884354349       -2.0843122045        0.4774747567
 C       -16.4070553549       -4.7777148900       -6.1114361329
 C       -18.3056395615       -3.7668500822       -7.4395731709
 C       -22.6152172406       -6.4569716182       -2.1633526370
 C       -23.3511729166       -4.1624784071       -1.3095055929
 H       -21.1262010852       -6.1990749679        1.4108545929
 H       -22.3119812426       -7.0870139290        0.5965558858
 H       -22.7967429158       -5.5564189759        1.2149105282
 H       -22.1837978708       -4.8884283857       -4.8778656768
 H       -21.0856946350       -6.0794458213       -4.3345481849
 H       -20.3254329525       -3.2134264660       -5.0869105749
 H       -20.3876169161       -4.5846536569       -6.2875725929
 H       -15.3104566419       -2.4665620966       -4.5478185763
 H       -16.2853772120       -3.6407804864       -3.8375313757
 H       -17.7215370785       -1.4600554833       -3.2158836577
 H       -16.1594342792       -0.5188093463       -3.3815073088
 H       -12.7962525451       -4.1790132998       -2.0574005535
 H       -13.8723291214       -4.0080082070       -0.6227556136
 H       -11.9137861686       -3.3923672947        0.6813064510
 H       -11.4105892321       -2.1770976619       -0.4172860322
 H        -8.9924745051       -3.0183398503       -3.2908577280
 H        -7.9957529435       -4.3855936624       -2.8105246787
 H        -6.0369099725       -2.8587568818       -2.4564105239
 H        -7.0168398540       -1.4881841574       -2.6438870643
 H        -5.3108225879       -0.9231839627       -7.7995803954
 H        -4.9116453234       -2.7057086867       -7.7756784641
 H        -2.4673406077       -2.1402780020       -7.9520455513
 H        -2.6945440664       -0.6410387089       -7.4800626422
 H         0.6603658534       -1.6877244190      -11.5534980648
 H        -0.5165732001       -0.5881383482      -12.4831105112
 H        -1.5042231769       -2.8264882854      -13.2361544090
 H        -0.4208373076       -3.7117276084      -12.2125231044
 H         3.4153081564       -5.1741452751      -15.1618870684
 H         3.2680560065       -3.5818731759      -14.2467691090
 H         4.5619607756       -2.4627834890      -16.2077026396
 H         5.0399225188       -4.2563861736      -16.5946952331
 H         9.3665293739       -1.1803937091      -16.3338051440
 H         9.8917484846       -2.6961474020      -15.7531938528
 H        11.0537103670       -1.5010881424      -14.2064098532
 H         9.6220380773       -1.7955528198      -13.2161979133
 H         7.7052083998        1.8282228312      -14.0065739253
 H         7.2759223453        2.5602203877      -12.5292748976
 H         5.3091544142        1.2727978815      -12.1298589210
 H         5.8291744426        0.0241050473      -13.2978428988
 H         2.4361233051       -0.3682979433      -15.5249773411
 H         4.1651295428       -0.0690796777      -15.6641279548
 H         2.3246963978        0.2119911442      -18.1228903192
 H         3.4284000646       -1.0495079411      -17.6826215690
 H         5.6171232478        2.7075312652      -19.0841346218
 H         5.4271323930        3.6536187400      -20.5405965130
 H         7.7532131050        3.8169761361      -20.6164699666
 H         7.3500063862        2.3261572327      -21.4939914778
 H         8.2376815845       -1.9298347047      -21.3078862267
 H         7.1201652587       -1.6074156453      -19.8987654873
 H         8.3790299922       -2.6173589161      -19.5981996128
 H         9.8956437695        0.2871515009      -22.2523915369
 H         9.2333299847        1.7281669108      -22.4270436107
 H         8.1798481468        0.2228306951      -22.2650711451
 H        11.2940954107        0.6187490958      -20.4441459127
 H        11.0050261564        1.2189663855      -18.9608441449
 H        10.7824569827        2.3656210128      -20.4084498941
 H         4.0566211349       -0.9973893102      -20.6119226287
 H         2.8235977670       -0.0267135483      -21.5880877696
 H         2.5528133156       -0.7078548505      -19.9404898825
 H         3.1609360355        3.0360478530      -19.7200450520
 H         1.9108558962        1.6531394140      -19.7030117892
 H         2.6072188368        2.0486785896      -21.0318467201
 H         3.0401728140        0.3582333250      -12.8517788217
 H         1.7309500209        1.5183681033      -13.0386084731
 H         3.0882823748        1.8676123103      -12.0334795449
 H         3.9310798184        4.1401756433      -15.1449517909
 H         4.3576205366        4.0913443076      -13.4928928973
 H         2.5630537265        4.1362480999      -14.1270593456
 H        10.9889037460        0.6472690848      -10.6364950846
 H        11.7134194775        0.2176274397      -12.0661010620
 H        10.5017329726       -0.8288533572      -11.4822147388
 H         9.8472451472        3.2345455236      -13.2591311327
 H        11.3611897742        2.7824236281      -13.0419523945
 H        10.5699813783        2.9775912952      -11.6450289397
 H         7.7738288735       -4.9590286407      -13.4588790160
 H         8.6045335095       -3.5738351986      -13.4341650903
 H         9.1113398005       -4.7581830858      -14.5967609918
 H         7.0151946896       -5.4355523359      -16.3010372596
 H         8.5231611380       -4.3096029291      -16.6652752447
 H         7.0828349006       -3.8583666483      -17.3517336932
 H         1.6037224476       -5.3215125424      -13.8739232220
 H         0.4712187703       -5.9139926502      -15.0160281749
 H        -0.0918729039       -5.2980762619      -13.5000496473
 H        -0.2226470404       -2.6925808687      -16.5801507779
 H        -1.3760309039       -3.7660312029      -15.6291293585
 H        -0.3649895391       -4.4815999015      -16.9014772025
 H        -1.7485363695        0.9532655627      -11.9254092336
 H        -1.9223432968        1.9138428271      -10.3532926232
 H        -3.2908012589        0.9286797193      -11.0318950317
 H        -0.4724114948       -0.9200729537       -8.4147074885
 H        -1.1895004023        0.7147678175       -8.4088484136
 H         0.0848983359        0.4167092118       -9.4765199320
 H        -6.9673950323       -0.8778309852       -6.5789103331
 H        -6.3085498907        0.6394885820       -6.0631676359
 H        -7.5198287790       -0.1141213426       -4.9565222015
 H        -5.6262588601        0.0828597443       -3.1977717030
 H        -4.1068093806        0.2214648292       -4.1671365954
 H        -4.3686264234       -1.0570169968       -3.0511486627
 H        -9.3966147582       -4.0223630345        2.0917469981
 H        -9.7453193509       -2.4842716819        1.3266537776
 H        -8.0510917575       -3.1707159295        1.4344811738
 H        -9.0934846246       -6.0265449287        0.5342915427
 H        -7.5597138576       -5.2994516841        0.2859000114
 H        -8.5199585465       -5.7724423675       -1.1986692167
 H       -15.4693673782        0.5717095099       -1.1012333400
 H       -14.0518274745        0.1152048120       -2.0228266454
 H       -14.0656089913        0.2376011490       -0.1644669933
 H       -13.9501946606       -2.0929282572        1.0673419191
 H       -15.1821649307       -3.1349713543        0.3728037922
 H       -15.4829365361       -1.4822315047        1.1515042082
 H       -16.6512157662       -5.7105917990       -6.6247619608
 H       -16.0236390111       -4.9926136063       -5.1510094142
 H       -15.5708410685       -4.3576705169       -6.6158560366
 H       -18.8141527106       -2.8298783826       -7.5074139184
 H       -19.0344035313       -4.5603300764       -7.7991299299
 H       -17.6270947505       -3.7012825971       -8.3007080744
 H       -21.8894456129       -6.8780435619       -2.7560107953
 H       -23.5237429377       -6.3598428155       -2.8327752688
 H       -22.8725218809       -7.1546832780       -1.3443547112
 H       -23.8975067567       -4.5068284149       -0.4628623871
 H       -23.9487139225       -3.9192542867       -2.1474604150
 H       -22.9916583628       -3.1995337508       -1.0090848318
 Na      -18.5957995088       -4.2197650159       -1.5874415941
 Na        7.8044725549        0.9516798323      -16.4028969991
