232

 C       -21.7009476136       -6.3055630470        0.7646529726
 C       -21.0990821153       -5.5792252247       -0.4111132984
 O       -19.9965902099       -5.1745426643       -0.3753752571
 C       -22.0003090411       -5.1817229965       -1.6626803538
 C       -21.1752270133       -4.2561262293       -2.7193178627
 O       -20.7296070268       -3.1780227457       -2.3933914555
 C       -20.8136857191       -4.9961931949       -4.0281257087
 C       -20.1365534489       -4.1701080458       -5.0958978777
 C       -18.6558139965       -4.3792069549       -5.0229002040
 O       -18.2835578506       -4.6739683913       -3.8856747385
 C       -17.6887985357       -3.8984782604       -6.0751566754
 C       -17.1809257733       -2.5144430989       -5.4567620001
 O       -17.6556976541       -1.4986062337       -5.8757434471
 C       -16.1463124516       -2.5729481423       -4.3195641173
 C       -16.3126772907       -1.5067594051       -3.1761655138
 C       -16.0523786454       -2.0833155911       -1.7480700630
 O       -16.7010221911       -2.9632443124       -1.2508076939
 C       -14.8461950213       -1.5176235309       -0.9784191341
 C       -13.6849430246       -2.2288606321       -1.7917991265
 O       -13.3059690719       -1.8369647364       -2.8549900554
 C       -13.0462754203       -3.5303518887       -1.2845268331
 C       -11.8817000567       -3.5102345012       -0.2340534687
 C       -10.5697626870       -4.2509502926       -0.7609334230
 O       -10.6469548551       -4.9074690169       -1.7731371452
 C        -9.2408874387       -4.0200201140       -0.1095442016
 C        -8.4357364327       -2.8108609646       -1.1796151256
 O        -8.4785393851       -1.6666423920       -0.7527638833
 C        -8.0305226017       -3.2282515894       -2.5778508022
 C        -6.8244200660       -2.3965686067       -3.0556128450
 C        -6.4606649645       -2.4887989645       -4.5563569792
 O        -6.6371377685       -3.4929066313       -5.2048002485
 C        -5.6753574577       -1.1986324206       -5.1156127118
 C        -4.5520558793       -1.7269203072       -6.0867355173
 O        -3.5027304149       -2.0984818391       -5.5401525250
 C        -4.5955124689       -1.7283843091       -7.5823178872
 C        -3.1713154504       -1.2430207235       -8.0681714236
 C        -3.2065425202       -0.6640619895       -9.5140628638
 O        -4.2738431567       -0.5812103219      -10.0913767541
 C        -1.9264434560       -0.2925353814      -10.1849451903
 C        -1.3229504396       -1.6712404092      -10.7860361483
 O        -1.5883473395       -2.6637764494      -10.1854870786
 C        -0.4098722477       -1.5396256690      -11.9854955315
 C        -0.4633663447       -2.7307200067      -12.9236868667
 C         0.6421838693       -2.7134195790      -13.9830221860
 O         1.5428933040       -1.8543308655      -13.9685091889
 C         0.7223838417       -3.8828289198      -15.0921521347
 C         2.0567766669       -3.8083570600      -15.8841293696
 O         2.1614644346       -3.1321852268      -16.9150529633
 C         3.4249075670       -4.1183210905      -15.1565427071
 C         4.6597826172       -3.3464923770      -15.7463900735
 C         5.8157005144       -3.3086806297      -14.7388289713
 O         5.5916054354       -3.0983249368      -13.5637846106
 C         7.2740854026       -3.4912837871      -15.1798588870
 C         7.8226964683       -2.1085879583      -15.4358817645
 O         7.1262771797       -1.1578089531      -15.6775328688
 C         9.3355566221       -1.8850093750      -15.4729446283
 C         9.8774283828       -1.2674858511      -14.1511005924
 C         9.8165810889        0.2928154962      -14.0158306067
 O         9.5394050150        0.9884193894      -15.0013796971
 C         9.7894978570        0.9550489075      -12.6311462823
 C         8.3342759794        0.8156738911      -12.0845431294
 O         7.9247240942        0.2682982442      -11.1192871655
 C         7.3469921709        1.7534182134      -12.9876411058
 C         6.1190637338        1.0022951622      -13.2603268811
 C         5.3390134373        1.7359784783      -14.3650712797
 O         5.9738818206        2.0262308715      -15.3343418828
 C         3.8253592270        2.1694202809      -14.2888664688
 C         3.1958144027        1.6211712112      -15.7068179440
 O         2.4968522256        2.3049181282      -16.3158578838
 C         3.4475259264        0.1663467000      -16.0577536121
 C         3.0270698226       -0.0970909640      -17.4794563551
 C         4.2205392246        0.4164280377      -18.4308472325
 O         5.3847653242        0.1668120322      -18.1904811694
 C         3.8596960936        1.0204387148      -19.7837760401
 C         5.2127309828        1.4606218926      -20.5300842681
 O         5.7350600367        0.7670658914      -21.3916729505
 C         5.8027468026        2.8731579515      -20.0336685612
 C         7.3162500661        3.0006399944      -20.3139033169
 C         8.1563207175        1.9970685943      -19.5903597229
 O         8.0871228243        2.0665820618      -18.3674297428
 C         9.0142565484        0.9172472988      -20.2927259216
 C         8.8366061529       -0.5472906819      -19.2451740565
 O         9.0872283003       -0.3725734444      -18.0940825115
 C         8.2013250558       -1.7370257042      -19.9521995329
 C         8.6547992228        0.5386096939      -21.6996984982
 C        10.5491040798        1.3011948685      -20.0386435322
 C         3.2164417913       -0.1975847756      -20.5047210570
 C         2.9159957924        2.2043228267      -19.6188809081
 C         2.8965909173        1.5777461276      -13.2687668479
 C         3.7412379265        3.7100771319      -14.2217271611
 C        10.8075680352        0.2463517595      -11.7421993651
 C        10.2025716845        2.3414099499      -12.8327347295
 C         7.9621862485       -4.1657873935      -13.9286241311
 C         7.5574476532       -4.2401587124      -16.5460459628
 C         0.8444969600       -5.1989809210      -14.3600631037
 C        -0.5613785057       -3.8726300968      -15.9804923189
 C        -2.1615668500        0.6039834194      -11.4352805965
 C        -0.9330300471        0.4517816195       -9.2123255930
 C        -6.7057150293       -0.2154458613       -5.7735363896
 C        -4.9625808769       -0.3983151673       -4.0108623286
 C        -9.3558017691       -3.2901498312        1.2332715719
 C        -8.4119247287       -5.3574982110       -0.1402379455
 C       -14.7072633294        0.0427053931       -1.2573050834
 C       -14.8972367606       -1.8469175107        0.5317512236
 C       -16.5554718991       -4.9465705295       -6.2456802481
 C       -18.3069591831       -3.5568913368       -7.4338437344
 C       -22.6254705464       -6.3887411504       -2.3555127292
 C       -23.2467891075       -4.4109132663       -1.1768997001
 H       -21.1130910497       -6.5519910796        1.6526321453
 H       -22.1577237879       -7.2935640830        0.3701529530
 H       -22.6100456458       -5.7885989450        1.0297133734
 H       -21.7300502868       -5.4302701519       -4.4341567302
 H       -20.2566628760       -5.8889020635       -3.6655292733
 H       -20.4834520793       -3.1713332251       -5.0224018946
 H       -20.4147354663       -4.5779358296       -6.0600302284
 H       -15.1007246410       -2.2517193070       -4.7781760896
 H       -15.9819578151       -3.5408729400       -4.0342287587
 H       -17.3059567210       -1.1452918450       -3.3046611752
 H       -15.5680174113       -0.7765737322       -3.3776907046
 H       -12.6590113417       -4.1199674993       -2.1687177616
 H       -13.8861392351       -4.0861974875       -0.9497162448
 H       -12.1441246605       -3.9082743256        0.7292841645
 H       -11.5067213556       -2.4970905581       -0.0120343433
 H        -8.9164228892       -3.1210976402       -3.2377321591
 H        -7.7572169090       -4.3342721039       -2.6355335281
 H        -5.9172216495       -2.6816342557       -2.5248528844
 H        -6.9115196436       -1.3278044593       -2.8421163192
 H        -5.2861086655       -1.0081471959       -7.9846894209
 H        -4.7332541035       -2.7095665262       -7.9969796132
 H        -2.4556827991       -2.0266387111       -7.9740162238
 H        -2.6999795302       -0.5263638906       -7.3525963916
 H         0.6109241221       -1.4420264474      -11.5999574643
 H        -0.6774233484       -0.6789702491      -12.5037489751
 H        -1.3964273721       -2.6213472188      -13.5166179343
 H        -0.4740501258       -3.7984814589      -12.5044108957
 H         3.5878636475       -5.1431659487      -15.4389841370
 H         3.2387156368       -3.9714565421      -14.0674953137
 H         4.3003000118       -2.2973176604      -15.9766705598
 H         4.9371229272       -3.8156333183      -16.7297285259
 H         9.5650070955       -1.1858484148      -16.3333077910
 H         9.8259085592       -2.8129625114      -15.6952625932
 H        10.8596684694       -1.7046339116      -13.8987003481
 H         9.2311334819       -1.5419689058      -13.3805800181
 H         7.8947685829        2.0683092240      -13.8993420463
 H         7.1120302736        2.7028411437      -12.3585745588
 H         5.6282829464        0.8875483340      -12.2659055146
 H         6.3905516849       -0.1143543344      -13.4574750254
 H         2.7985937932       -0.3958976793      -15.4197185345
 H         4.5203374712       -0.0468632689      -15.8720128256
 H         2.0820997114        0.4408094373      -17.6862522207
 H         2.7647146837       -1.2112247664      -17.5123109275
 H         5.6487054611        2.8486895624      -18.8953696276
 H         5.3509772783        3.7938211134      -20.4342507585
 H         7.6248911630        3.9667471425      -19.9597146217
 H         7.6142842142        3.0494102558      -21.3679002941
 H         8.8644106372       -2.0285845988      -20.6433685601
 H         7.3177704383       -1.3826729263      -20.5106911101
 H         7.7714755452       -2.4914209838      -19.2782286030
 H         8.7937813339       -0.5727471410      -22.0083823187
 H         9.3074788475        1.0497883596      -22.4185718438
 H         7.7028474021        0.7033415193      -21.9127446617
 H        11.2915883546        0.6048455606      -20.4064930687
 H        10.7055325573        1.2987822444      -18.9796433489
 H        10.7302466434        2.2436280659      -20.5044580852
 H         3.9266477145       -1.0501356423      -20.6408201711
 H         2.8772826803        0.3404390008      -21.3580949159
 H         2.3363377115       -0.6415425995      -19.9498168613
 H         3.5237466957        2.8325129077      -18.9279554286
 H         1.9120654228        1.9236252903      -19.3246582920
 H         2.6745307152        2.6891323235      -20.6057655463
 H         2.7826725420        0.5288135899      -13.4600369852
 H         1.9288460633        2.0989169211      -13.4463798552
 H         3.2278806870        1.6006687247      -12.2034114877
 H         4.7392627952        4.1749427227      -14.0528361293
 H         3.1289548158        4.0165289978      -13.3677871351
 H         3.3675240922        4.1505903913      -15.1636991492
 H        10.7230802746        0.6451455250      -10.7246863251
 H        11.9308623947        0.3588322296      -11.9545274290
 H        10.5357951195       -0.7987286752      -11.6171404366
 H        10.1804632590        2.6464383842      -13.8894248894
 H        11.2462977136        2.5803805743      -12.5721422456
 H         9.7077553938        3.0786831831      -12.1918702994
 H         7.9977894663       -5.2909507013      -13.9913758092
 H         7.5261619631       -4.0787649466      -12.9286542661
 H         8.9669938124       -3.7632764895      -13.8753956807
 H         7.3205354699       -5.2293890321      -16.4037875190
 H         8.4615732661       -3.9225783138      -16.8979504286
 H         6.8860098041       -3.7440493791      -17.2639608599
 H         1.3577643282       -5.0638491524      -13.3869813192
 H         1.3628276102       -6.0055529328      -14.9547737248
 H        -0.1592138060       -5.5741928368      -14.1855227274
 H        -0.8695075543       -2.9729030650      -16.4084304005
 H        -1.3661318842       -4.3391688661      -15.4692952737
 H        -0.3358795777       -4.4969986380      -16.8165590593
 H        -1.4189789144        1.3071101789      -11.4427299823
 H        -3.1585258382        1.0607839899      -11.3261260628
 H        -2.0670028930        0.1066949722      -12.3779454671
 H        -0.3660612304       -0.2900899230       -8.7338473360
 H        -1.4509240240        1.1152575586       -8.4614969563
 H        -0.2056931327        1.0257900094       -9.7782099620
 H        -7.1539294414       -0.5792332273       -6.6643959109
 H        -6.1458117349        0.6471186590       -6.1467710021
 H        -7.3755808583        0.1101621231       -5.0369615064
 H        -5.6561543631        0.0580523107       -3.3273869989
 H        -4.3755688607        0.3648599356       -4.4231742315
 H        -4.2690335954       -0.9539259543       -3.4544567821
 H       -10.1578323969       -3.6215983301        1.8271859323
 H        -9.5993638590       -2.2549756092        1.1226845421
 H        -8.4350277738       -3.4644345422        1.8001147214
 H        -8.4800159927       -5.8559080466        0.8188348215
 H        -7.3775288302       -5.1170323117       -0.3861441665
 H        -8.8736823236       -5.8779468164       -0.9599578415
 H       -15.4851491608        0.6444266879       -0.8211480506
 H       -14.8097534299        0.2361815651       -2.2809197133
 H       -13.8438626427        0.3818403331       -0.6893520539
 H       -13.9654375708       -1.8770939585        0.9965975273
 H       -15.3743529025       -2.7681462066        0.7431673710
 H       -15.4798233624       -1.0769387878        0.9895421311
 H       -16.6460262798       -5.5902455151       -7.0792377687
 H       -16.3511654435       -5.5257290903       -5.3059313067
 H       -15.5965758620       -4.4141701636       -6.4584147656
 H       -19.2158091976       -2.9827006390       -7.5138493118
 H       -18.2676794421       -4.3944100167       -8.0887929223
 H       -17.6128972275       -2.9106148459       -8.0085461069
 H       -21.8912489020       -7.1906242799       -2.5744578787
 H       -23.0081419184       -6.1260268370       -3.2800501456
 H       -23.4312726931       -6.7659978607       -1.7809999349
 H       -23.7782716046       -5.0026742430       -0.4448522177
 H       -23.8561988346       -4.1096396771       -2.0244560254
 H       -23.0984331274       -3.3982901174       -0.7326634999
 Na      -18.5993759902       -3.9485807013       -1.9191614262
 Na        7.5463988400        0.9068048159      -16.4512087825
