232

 C       -21.6444676898       -6.3993790636        0.6077368875
 C       -21.0677484698       -5.4927606035       -0.4535228318
 O       -19.8860763564       -5.1693597907       -0.3472592987
 C       -22.0317645086       -5.2004130829       -1.6569223351
 C       -21.1596665595       -4.4111125949       -2.6455082052
 O       -20.7895818602       -3.3159857010       -2.2273312981
 C       -20.8213639674       -5.0418025753       -4.0081475579
 C       -20.1404348638       -4.0553462278       -4.9954513488
 C       -18.6392771297       -4.2836462578       -4.9697989228
 O       -18.0208285355       -4.6529819774       -3.9727739059
 C       -17.6818389371       -3.8559160393       -6.1201081427
 C       -17.1524366778       -2.5071596317       -5.4153983848
 O       -17.6282969806       -1.4414947289       -5.7465867419
 C       -16.0657735947       -2.6356813862       -4.3257532118
 C       -16.3016049386       -1.5624360430       -3.1909484867
 C       -16.0030527893       -2.0663681213       -1.7722421575
 O       -16.6791719707       -2.9724194880       -1.2612170930
 C       -14.8104738106       -1.4027096055       -0.9532056315
 C       -13.5183392562       -2.2385632163       -1.8215753444
 O       -13.3094774114       -1.8134922601       -2.9449916072
 C       -13.1541344618       -3.6609221609       -1.2173624729
 C       -11.8910813223       -3.5448712426       -0.2883639597
 C       -10.6136235707       -4.1919247446       -0.8627545975
 O       -10.6478008368       -4.9092597576       -1.8744545308
 C        -9.2076478746       -3.8571391026       -0.1384909179
 C        -8.5676250880       -2.8510138903       -1.1055693369
 O        -8.4797171399       -1.6742220845       -0.8353505399
 C        -8.0079486037       -3.3461548159       -2.4296516082
 C        -6.9068764914       -2.3630389853       -2.9665497907
 C        -6.5295343142       -2.4470374214       -4.4836490475
 O        -6.8140844650       -3.3628402930       -5.1897058498
 C        -5.6582272363       -1.2285076874       -5.1165994602
 C        -4.5120802046       -1.7627205893       -6.0484254931
 O        -3.5287014316       -2.1544605308       -5.4798849678
 C        -4.5863249578       -1.6333934911       -7.5815064877
 C        -3.2738383698       -1.1943689439       -8.1705864027
 C        -3.2818451905       -0.6624231529       -9.6211611908
 O        -4.3509951957       -0.4277617770      -10.1356056797
 C        -1.8585668417       -0.2499963488      -10.3645588714
 C        -1.2074182656       -1.6004128015      -10.8173190323
 O        -1.4686607248       -2.6383741759      -10.2890460954
 C        -0.1791646214       -1.5955262919      -12.0328753917
 C        -0.4881698957       -2.7669005546      -13.0398414269
 C         0.7480213520       -2.7694077535      -14.0196487439
 O         1.6086008057       -1.9623135104      -13.9835222952
 C         0.7742725832       -3.9777988431      -15.0808367739
 C         2.1607260758       -3.6283618993      -15.8689778080
 O         2.1838480692       -3.1926222440      -16.9944521642
 C         3.4018261818       -4.1010768693      -15.1345883191
 C         4.6269099072       -3.3623661076      -15.6984685362
 C         5.7993547846       -3.3044530059      -14.7302608980
 O         5.5773584444       -2.9632062932      -13.5708691778
 C         7.3009059045       -3.4962156401      -15.1275435851
 C         7.8087633437       -2.0443929670      -15.3617240406
 O         7.0988823808       -1.0713371033      -15.4819994241
 C         9.4165601857       -1.8964563336      -15.4242449397
 C         9.7835350454       -1.2914167590      -14.1026873540
 C         9.5832396104        0.2052895990      -14.0872633954
 O         9.4617064945        0.9030570987      -15.0775594025
 C         9.8260816154        0.9499034978      -12.6811218827
 C         8.3520223409        0.8904681269      -12.1144692705
 O         8.0416470028        0.1005832326      -11.2104270287
 C         7.3059598055        1.7899587083      -12.7841438948
 C         6.1111666569        1.0198083568      -13.2894191590
 C         5.4463007775        1.8662840162      -14.4112690344
 O         6.0807452984        2.1966033221      -15.4401770390
 C         3.8648443770        2.1849370030      -14.3268938373
 C         3.2546411251        1.6149309439      -15.6988489442
 O         2.5187737293        2.2814777800      -16.3963638935
 C         3.4804471048        0.0725419385      -16.0429456308
 C         3.0381690124       -0.1720479029      -17.5141555567
 C         4.1915897562        0.2043928995      -18.4706482783
 O         5.3306487059       -0.0178184754      -18.0535100699
 C         3.8304093878        1.0945729493      -19.8009832512
 C         5.1834121987        1.4805329773      -20.3610146583
 O         5.7064882892        0.7430552467      -21.1704974671
 C         5.7990932385        2.8221854070      -19.9969376878
 C         7.2967583189        3.0258815003      -20.4182113292
 C         8.0237435233        2.0211731376      -19.4574818070
 O         7.8403471598        2.0986015616      -18.2718749405
 C         8.9245845205        0.8105854950      -20.1051381127
 C         8.7264211854       -0.3969788665      -19.3020656107
 O         9.0368331512       -0.4343156968      -18.1171808150
 C         8.2134381644       -1.7452664824      -19.8077090062
 C         8.6508327932        0.4902451920      -21.5691175131
 C        10.4428446996        1.2062636716      -20.0613324439
 C         3.2010230904       -0.0789360672      -20.7614017318
 C         2.9813639420        2.2612394665      -19.3843466906
 C         3.0132742646        1.5170696166      -13.1748919377
 C         3.9086952695        3.7759370287      -14.1934196789
 C        10.7076675286        0.1017836153      -11.6457302849
 C        10.2206923061        2.4950674132      -12.8709895790
 C         8.0192394864       -4.2742755323      -13.9823859358
 C         7.5382365924       -4.3032138859      -16.4248238769
 C         0.8756347475       -5.3663730434      -14.2938662719
 C        -0.5466900537       -3.9056925714      -15.8926315148
 C        -2.3460975184        0.6593277416      -11.6817788903
 C        -1.0277347890        0.5348390855       -9.3799102374
 C        -6.7195288285       -0.3450051610       -5.9502833835
 C        -4.9363634324       -0.3839290876       -4.1368684526
 C        -9.4033368212       -3.3208279853        1.3201669803
 C        -8.2734950671       -5.1428084375       -0.1682605088
 C       -14.6612284952        0.1106259015       -1.1837932231
 C       -14.9559764040       -1.7135776851        0.5013754620
 C       -16.6173879978       -5.0258537420       -6.2927443928
 C       -18.3423069610       -3.5222755791       -7.4722671777
 C       -22.5326768244       -6.5392427083       -2.2908772198
 C       -23.1458928599       -4.2651410585       -1.0672384259
 H       -20.9709067904       -6.6534373183        1.4024474896
 H       -22.0246748201       -7.3376587459        0.2361329011
 H       -22.5122929008       -5.9393260241        1.1010868610
 H       -21.8183360666       -5.3714007037       -4.3961188396
 H       -20.2803758077       -5.9351118646       -3.8473593776
 H       -20.4470916922       -3.0574762231       -4.8511259512
 H       -20.3693400012       -4.3680641965       -6.0289644925
 H       -15.0303026018       -2.4683614319       -4.6974106182
 H       -16.0730845918       -3.7213732806       -3.9493621725
 H       -17.3788245242       -1.3914194628       -3.2350477257
 H       -15.6981777589       -0.6837491733       -3.4160965368
 H       -12.9508186377       -4.3687193363       -1.9857496414
 H       -14.1085651532       -4.0477983451       -0.7323208665
 H       -12.0117664056       -4.1411839107        0.6259389793
 H       -11.6300304497       -2.5598090040        0.0151826635
 H        -8.8109116423       -3.3089641967       -3.0958139955
 H        -7.6422065049       -4.3419662065       -2.5121663311
 H        -5.9511678106       -2.4776626548       -2.4295617571
 H        -7.1511403437       -1.2792062409       -2.8023233582
 H        -5.2123512016       -0.8158548051       -7.8380259916
 H        -4.8756082341       -2.5478054872       -8.0544876736
 H        -2.4981470094       -2.0223840414       -8.0405321173
 H        -2.7602418756       -0.4027242661       -7.4872675031
 H         0.7503992874       -1.9294587613      -11.6041545205
 H        -0.0777238238       -0.5927639600      -12.4508810677
 H        -1.4537773773       -2.7412148591      -13.5269344120
 H        -0.4046981482       -3.7118012495      -12.5543007897
 H         3.3921401287       -5.1595020483      -15.2790580494
 H         3.1650719239       -3.8148638369      -14.1023746881
 H         4.0972862016       -2.3160743861      -15.8209505955
 H         4.8749739661       -3.6338138308      -16.7189682565
 H         9.9014532369       -1.2953545553      -16.1660264299
 H         9.7870478818       -2.9562354802      -15.4511964385
 H        10.8056981622       -1.4320871044      -13.9243732424
 H         9.2114233620       -1.7177635208      -13.2772648786
 H         7.9443709793        2.1542850531      -13.6675051747
 H         7.0483137746        2.6426041184      -12.1384774484
 H         5.5138167014        0.6315504809      -12.3975133855
 H         6.5055843742        0.0073007298      -13.6772287839
 H         2.8179714373       -0.5642693035      -15.3843063099
 H         4.5889627864       -0.0480521804      -15.9140509067
 H         2.0800295871        0.2661803818      -17.7716877625
 H         2.8798046615       -1.2685712441      -17.5562013211
 H         5.7185068063        3.0327788942      -18.9029407621
 H         5.2569829638        3.6314902533      -20.5174294753
 H         7.5795485346        4.0573355226      -20.2336944546
 H         7.5770540360        2.9053834218      -21.4392983698
 H         9.1079652817       -2.3101372952      -20.2433482147
 H         7.4474986658       -1.7618368450      -20.5735030545
 H         7.6979619795       -2.1401782865      -18.9321217366
 H         8.9068538346       -0.4987832793      -21.9155532964
 H         9.2007313836        1.2233031575      -22.1957142832
 H         7.5113042019        0.5106676920      -21.7805383227
 H        11.0489866914        0.4773371839      -20.5972758380
 H        10.9662534792        1.3808638640      -19.1047287004
 H        10.4142327587        2.0245039799      -20.7752395842
 H         3.8185157363       -0.9394224873      -20.6549411535
 H         3.1401753606        0.3763940289      -21.7118010575
 H         2.1769430609       -0.4296077146      -20.4012805365
 H         3.5631573086        2.6916807511      -18.5817240480
 H         1.9474813724        1.9173519979      -19.0876186190
 H         2.7641055610        2.9174645546      -20.2219621692
 H         2.9618000185        0.4280570599      -13.1851877965
 H         2.0028428632        1.9781504262      -13.2256718321
 H         3.5158459484        1.7467780036      -12.2094624331
 H         4.7643548988        4.1758348414      -13.5756659336
 H         2.9344226851        4.0755999759      -13.7369065663
 H         3.9844925359        4.2978836891      -15.1866486404
 H        10.6397805223        0.5518492579      -10.6751412386
 H        11.7778071104        0.0923990427      -11.8294990754
 H        10.3239830665       -0.9410988255      -11.4450098697
 H        10.1050763602        2.8172915995      -13.9749144662
 H        11.1929486768        2.9404270303      -12.6182286340
 H         9.5537015404        3.0693853587      -12.3127692547
 H         8.1968918628       -5.3068020731      -14.2406807655
 H         7.4343434798       -4.4476648798      -13.1126858804
 H         8.9543713130       -3.7579294135      -13.6199165070
 H         7.0146105749       -5.2480278785      -16.1744203973
 H         8.5922140979       -4.2489638820      -16.4899994564
 H         7.1508372440       -3.7958641537      -17.3243521036
 H         1.2599439403       -5.2644753108      -13.2976627838
 H         1.4568746910       -6.1649163689      -14.8375404703
 H        -0.1889900135       -5.7430406953      -14.2497781373
 H        -0.7797438520       -2.9431286025      -16.3032575503
 H        -1.3501983789       -4.2052536729      -15.2532128358
 H        -0.4928725805       -4.5075243226      -16.7411100909
 H        -1.7276609368        1.5504787024      -11.8683226715
 H        -3.3826425351        0.8927006239      -11.3731806174
 H        -2.2597688662        0.0854531361      -12.5437445160
 H        -0.6715831492       -0.0713001453       -8.5001818181
 H        -1.6318870251        1.3946769228       -9.0681104867
 H        -0.1079394155        0.8962138312       -9.9016958082
 H        -7.2301041798       -0.9001278167       -6.7126814655
 H        -6.2371545190        0.4190511376       -6.4642100078
 H        -7.3909656946        0.0774480008       -5.1934868430
 H        -5.5636370138        0.0786871708       -3.3806528773
 H        -4.4120001456        0.4494699293       -4.6111495866
 H        -4.1183908799       -0.9617864347       -3.6314988442
 H       -10.2928193923       -3.7640939122        1.7174948090
 H        -9.6912600021       -2.2304904360        1.3506541910
 H        -8.5970554730       -3.5349368666        1.9431455423
 H        -8.4294708229       -5.6633796103        0.8427769779
 H        -7.2743942521       -4.8060431983       -0.3213130234
 H        -8.5924069519       -5.7109145632       -1.0183868935
 H       -15.5859146465        0.5747689999       -0.7000904087
 H       -14.7794005744        0.4378760236       -2.1691731743
 H       -13.8954183621        0.5165772032       -0.5545610452
 H       -14.0060622397       -1.6021805818        1.0575406809
 H       -15.2515199675       -2.7880704281        0.6598630437
 H       -15.7865245951       -1.1521748835        0.9645829258
 H       -16.8645485573       -5.7204539957       -7.0802413571
 H       -16.4288438233       -5.6129890362       -5.3514305679
 H       -15.6162627915       -4.6534831749       -6.6635672740
 H       -19.2658172589       -3.0896863832       -7.4481116746
 H       -18.2376772694       -4.4539147616       -8.0874945502
 H       -17.7699741962       -2.8343284241       -8.1678908870
 H       -21.7424355163       -7.1987690501       -2.4750874481
 H       -23.0784763981       -6.4023907176       -3.2746081359
 H       -23.2760796213       -7.0056653509       -1.5799798510
 H       -23.7773987924       -4.7988134337       -0.3308856658
 H       -23.7337393691       -3.7096555671       -1.7851759038
 H       -22.7055908121       -3.3666481057       -0.5239346829
 Na      -18.6681674760       -3.7943474440       -2.0038819063
 Na        7.4974598786        0.8332997017      -16.6834304528
