232

 C       -13.0323651510      -17.6847323260       -3.5438200639
 C       -13.8382909186      -16.4666707696       -4.0544521423
 O       -13.3533251312      -15.3746793814       -4.2203496961
 C       -15.4347961023      -16.6266787413       -4.1820598848
 C       -16.0322056892      -15.5773637600       -5.1505395461
 O       -15.9028316635      -14.4176973692       -4.8548613531
 C       -16.6118389068      -15.9444673256       -6.4946701391
 C       -16.8535957213      -14.7613922947       -7.4310463723
 C       -15.5276666049      -14.1158625027       -7.9600135532
 O       -14.4821756397      -14.6192851847       -7.7891721309
 C       -15.6203372834      -12.6374007612       -8.6719288870
 C       -16.0288198802      -11.5599353989       -7.5992604954
 O       -16.6803859850      -11.9455967957       -6.6347262793
 C       -15.4059808289      -10.1828433927       -7.5852339550
 C       -15.6313648084       -9.5526192160       -6.1578776836
 C       -14.4842674374       -9.8411017472       -5.1631152477
 O       -14.0956931977      -11.0106776794       -4.8832056262
 C       -13.7260463690       -8.6934847975       -4.4629248269
 C       -12.9997897868       -7.9703800271       -5.7238204896
 O       -13.1329127328       -8.3584695759       -6.8507704552
 C       -12.0707676863       -6.7792996437       -5.2565343736
 C       -11.9081041722       -5.7660920716       -6.5230704082
 C       -12.9727112230       -4.6994988095       -6.4306582649
 O       -13.9206301785       -4.8121481634       -5.6668895908
 C       -12.7693538320       -3.3896674371       -7.2372038131
 C       -11.8624490616       -2.4625891217       -6.3941464263
 O       -11.0491077198       -2.9475382960       -5.6894828378
 C       -11.7258856441       -0.9442674503       -6.5967934982
 C       -10.2329015534       -0.5230371305       -6.5074530926
 C       -10.0545154789        0.8075240219       -5.7344889774
 O       -10.7178952907        1.7916940672       -5.9994016776
 C        -9.1245217332        0.7719397322       -4.4994967303
 C        -7.7127052671        0.3462115980       -4.9374577545
 O        -7.3479085917       -0.8172397135       -4.9193416833
 C        -6.7253192962        1.3513758762       -5.3707755395
 C        -7.0895641384        1.9536834391       -6.8236602974
 C        -6.4277821083        3.4068453421       -7.0289290087
 O        -5.9155308426        3.9014370525       -5.9875914610
 C        -6.1559853550        4.0780389099       -8.4700314723
 C        -5.1825689138        3.1251945645       -9.1845811484
 O        -5.5278118349        2.0998304331       -9.7565670007
 C        -3.5751251156        3.5010029838       -9.3877891105
 C        -2.7965776700        2.1462388827       -9.5418603858
 C        -1.5452552792        2.2992128271      -10.3146108565
 O        -1.5806267999        2.8026012351      -11.4841498077
 C        -0.0771800709        2.0851923102       -9.8201137294
 C         0.8216875484        2.2082836004      -11.0393213675
 O         1.3973142011        1.2320703050      -11.5151345101
 C         0.8991278824        3.5507070140      -11.6996283871
 C         2.0978053302        4.3550953138      -11.3045477874
 C         2.1287319567        5.6784448544      -12.0032627507
 O         1.2703434787        6.4746615138      -11.6614617003
 C         3.3307069270        6.2424789744      -12.9379852664
 C         3.7785517462        5.1189213726      -14.0427380694
 O         4.8822396052        4.7065812314      -14.1660589723
 C         2.5789959828        4.7179280144      -15.0727456259
 C         2.7846606390        5.2686093041      -16.4930997586
 C         3.9022545515        4.4643900838      -17.4117517800
 O         4.3640915360        3.4182066462      -17.0416359733
 C         4.4786517533        5.2055722789      -18.6671102205
 C         5.9821628773        5.1560867018      -18.5405763879
 O         6.5874014453        5.1934306875      -19.5854828717
 C         6.5568718596        5.3740184428      -17.1430419749
 C         8.0354525820        5.2872613329      -17.0397791286
 C         8.3386906136        3.7208103310      -17.0284859405
 O         7.5044878238        2.9549445095      -16.5869639506
 C         9.6871047486        3.1713027089      -17.6524316915
 C        10.7628668853        3.3841271595      -16.5154463404
 O        10.8309921973        4.5448919096      -16.0805094473
 C        11.6681742251        2.2082787775      -16.0835849358
 C        12.3495006646        2.3251187838      -14.7153464595
 C        11.3172710303        2.3114321960      -13.6090861873
 O        10.3220673498        1.6473124095      -13.7474700157
 C        11.5703282890        3.1632482687      -12.3303277518
 C        10.5888576551        2.7209989645      -11.1835716809
 O        11.0605680662        2.0470802217      -10.2467648151
 C         9.0799607003        2.8483368642      -11.3796850627
 C         8.3149021165        1.5453061796      -11.3780758066
 C         7.1660444376        1.5809454231      -12.3477216584
 O         7.1265648587        2.4151508264      -13.2167420111
 C         6.0065445766        0.4995827335      -12.2566679355
 C         5.8202857429       -0.0687267176      -13.7502339341
 O         5.1032252731        0.4427247488      -14.6308864076
 C         6.5314589387       -1.3356010273      -14.0113479625
 C         6.3346729878       -0.6076620198      -11.2609866081
 C         4.6013037231        0.9715226646      -11.8314438197
 C        13.0719353454        2.8557516998      -11.8162930170
 C        11.2182101921        4.6368172749      -12.6707329111
 C         9.6186606141        1.6523096963      -18.0655502306
 C        10.1670167425        4.0024348596      -18.8737038042
 C         4.1366205627        4.3004901260      -19.9483905580
 C         4.0513078407        6.6230069661      -18.8416022953
 C         3.0138337890        7.6092392432      -13.5752908533
 C         4.4993157749        6.6066581818      -11.8855784776
 C         0.1695850890        3.1349141317       -8.8134677282
 C         0.2260002595        0.6846110054       -9.2709755265
 C        -7.4983559353        4.0440377352       -9.2567462653
 C        -5.5249506594        5.4615188717       -8.2034637934
 C        -9.0973539181        2.1909819617       -3.9361733169
 C        -9.6029894181       -0.2698457943       -3.3901535586
 C       -11.9550782810       -3.7809315988       -8.5089832757
 C       -14.0921920298       -2.7336035516       -7.7448371126
 C       -14.8634019343       -7.8161693609       -3.7684847218
 C       -12.7264364970       -9.2293855567       -3.3886533713
 C       -14.1494074199      -12.3925343891       -9.2064071396
 C       -16.7492083372      -12.6510756391       -9.7493073107
 C       -15.7296227837      -18.0943298236       -4.7040005428
 C       -16.0229412096      -16.4712466862       -2.7380251838
 H       -13.3191827615      -18.5687353424       -4.0712359037
 H       -13.1523697655      -17.8876811907       -2.4676163248
 H       -11.9359822896      -17.5476665306       -3.7147869281
 H       -17.5488240793      -16.5096918375       -6.3569780148
 H       -15.9047874288      -16.6353967447       -7.0476979001
 H       -17.5622745568      -14.0040860098       -7.0679338327
 H       -17.2979776264      -15.1677817965       -8.3692228412
 H       -15.8234966244       -9.5992026460       -8.3079417577
 H       -14.3555855346      -10.2278714314       -7.8778388882
 H       -16.5208074428       -9.9786314231       -5.6268591510
 H       -15.6695939763       -8.5019385922       -6.1921500979
 H       -11.1685205063       -7.2540786585       -4.8951773323
 H       -12.4171286516       -6.2023401271       -4.4338850711
 H       -11.8233441517       -6.3579695766       -7.4655255913
 H       -10.9050288251       -5.3566295791       -6.4629494770
 H       -12.3060303113       -0.2972969083       -5.9558001045
 H       -12.1626617041       -0.6324682751       -7.5050441143
 H        -9.8976746069       -0.4758214797       -7.5612073331
 H        -9.6423384619       -1.3071038550       -6.0192124876
 H        -5.7479926453        0.6956049834       -5.5002240775
 H        -6.3750180050        2.2426807864       -4.8511152941
 H        -8.1498615726        1.9856869339       -6.9906031629
 H        -6.6951952103        1.3260163312       -7.6759542970
 H        -3.1960094439        4.0911409654       -8.6235212056
 H        -3.5373383349        4.0966345886      -10.3139359693
 H        -3.3855507342        1.4989536409      -10.2633231560
 H        -2.6932879039        1.8352369469       -8.5318575108
 H         0.0580655712        4.3048244407      -11.6142292391
 H         0.8892912458        3.3037849566      -12.7943385636
 H         3.0114740249        3.8389557951      -11.5790834973
 H         2.1644096953        4.5292264018      -10.1882091585
 H         1.7024887977        5.1237758348      -14.6660348801
 H         2.3524493017        3.6580780204      -15.1192062222
 H         3.0423177882        6.3230407276      -16.4858060135
 H         1.8443119224        5.2436999494      -17.1601731412
 H         6.2043930940        4.6452466545      -16.4649493695
 H         6.1959182550        6.3160385973      -16.6455112191
 H         8.5060657775        5.7193727237      -16.2630704510
 H         8.4867585299        5.7742703158      -17.9323705650
 H        12.3635446425        2.2035122774      -16.9227637567
 H        11.1019025614        1.3079091985      -16.1266951087
 H        13.0184308580        3.2003871959      -14.7632828012
 H        13.0140081610        1.5715856796      -14.3196066234
 H         8.8236993952        3.4421800008      -12.2594143578
 H         8.7133660389        3.5423027342      -10.5979613694
 H         7.9255713839        1.2778014213      -10.3460606251
 H         8.8688853280        0.6622230528      -11.4939528707
 H         6.0014067898       -2.2040455524      -13.5805774296
 H         7.4939585003       -1.1717791768      -13.5734094239
 H         6.5472348095       -1.5879893540      -14.9908316157
 H         5.6039909554       -1.3856970882      -11.3085625421
 H         6.1372469960       -0.2224082626      -10.2491528525
 H         7.3571928955       -1.0145634835      -11.0902391793
 H         3.8572694849        0.1545882817      -11.7783973374
 H         4.2996276504        1.8978748909      -12.4873761294
 H         4.6873083870        1.2618407542      -10.8365718030
 H        13.8536508417        3.1832466154      -12.5594760557
 H        13.2531826027        1.8128429931      -11.6575444760
 H        13.0787610056        3.4713095124      -10.8959367885
 H        11.9209674548        5.1738244700      -13.3039322866
 H        11.2511496814        5.2467553381      -11.7552098349
 H        10.2700585649        4.6939507902      -13.2137290476
 H         9.7635206501        0.9903227234      -17.1710658901
 H        10.3151106313        1.2908722584      -18.8198538342
 H         8.6371158128        1.4242225938      -18.5480406881
 H        10.2488248921        5.0080532986      -18.5351365360
 H         9.3943956787        3.9555435786      -19.6473732285
 H        11.0647597680        3.5711702843      -19.3252959597
 H         4.3009895548        4.8386417929      -20.9138457489
 H         3.0939712918        4.2108204965      -19.9644461210
 H         4.5540722717        3.3181859190      -19.8898390287
 H         4.4423836333        7.0200572051      -19.8307336289
 H         4.5693016908        7.1286071409      -17.9960160124
 H         2.9589238722        6.7502871306      -18.7412994511
 H         2.5017204402        8.2172465189      -12.7641138861
 H         2.4098439372        7.4949500050      -14.4370178604
 H         3.9281523519        8.0709706410      -13.9143632298
 H         5.4120891526        7.0386830786      -12.2512341648
 H         4.9001523328        5.8281289025      -11.3105615995
 H         4.2561767007        7.4100019000      -11.1673366943
 H         1.0739274989        2.8712317400       -8.3574967505
 H        -0.6386985177        3.0242203174       -7.9949328380
 H         0.0508876371        4.1236937939       -9.1234356315
 H        -0.5941985704        0.4266861869       -8.5254609072
 H         1.2226814557        0.6815577089       -8.9333420294
 H         0.1588367269        0.0067522814      -10.1352899046
 H        -7.8544729812        2.9999725676       -9.4139462286
 H        -7.4692510755        4.5173777515      -10.2478676186
 H        -8.2935308487        4.5114516081       -8.5958727820
 H        -5.0217588576        5.7254138062       -9.0977437999
 H        -4.6986343957        5.3915146129       -7.4497975336
 H        -6.2307312797        6.2430535957       -7.8938117217
 H       -10.0542452374        2.3456230550       -3.4905417794
 H        -8.9770159055        2.8870523179       -4.7252341724
 H        -8.2648911615        2.4291134538       -3.2630724628
 H        -8.8906697438       -0.2747407690       -2.4704110685
 H        -9.6057888131       -1.3266369479       -3.6864423619
 H       -10.5369230501        0.1713965508       -3.0375276104
 H       -11.7696685607       -2.8771155915       -9.1000219316
 H       -12.6028953639       -4.4452972095       -9.1568260112
 H       -11.0006891437       -4.1615814146       -8.1718093794
 H       -14.6644836835       -3.3270760106       -8.5228927626
 H       -13.7992610226       -1.6796482372       -8.1172112330
 H       -14.6980049201       -2.7558472259       -6.8314285924
 H       -15.7362482833       -7.4600054939       -4.3286577301
 H       -14.5796574549       -6.9599425362       -3.1928166150
 H       -15.3760435479       -8.4610833384       -2.9929507333
 H       -11.8013800249       -9.6817423505       -3.7729746506
 H       -13.2635595259      -10.0624836979       -2.7902986593
 H       -12.6374934406       -8.4745408397       -2.6789328228
 H       -13.4913439268      -12.2794794271       -8.2983723559
 H       -14.0198862219      -11.4899204209       -9.8181731013
 H       -13.8363180926      -13.3103303175       -9.7739816807
 H       -16.3833245420      -12.8815096330      -10.6911253639
 H       -17.4605009534      -11.8479269620       -9.6981534146
 H       -17.3393835610      -13.5095373543       -9.5957718962
 H       -14.9494130319      -18.3717304826       -5.5185341844
 H       -16.7786923397      -18.1829686699       -5.0829015957
 H       -15.4912372604      -18.8487615179       -4.0063311413
 H       -15.9512127160      -15.5364760843       -2.2148072542
 H       -15.7267451238      -17.2200544689       -1.9912702817
 H       -17.0829678091      -16.7355761021       -3.0037332408
 Na      -14.0704540798      -13.3113705889       -5.3519546795
 Na        5.7538489220        2.7085139415      -15.0830786065
