232

 C       -17.8138454238      -13.8348726148       -0.3107805114
 C       -16.8595625866      -13.8792660628       -1.5633062983
 O       -16.9043307756      -12.9169308085       -2.2958148414
 C       -15.7655005948      -15.0675111246       -1.6301111820
 C       -15.1000081714      -15.0617938711       -3.0437689507
 O       -15.7700288982      -14.7424519812       -4.0282434620
 C       -13.6196654310      -15.4947962541       -3.1981162453
 C       -13.0236609797      -15.1541833137       -4.6002583768
 C       -13.3476608379      -13.8074742240       -5.1500945437
 O       -13.4836962055      -12.8943307683       -4.4224333661
 C       -13.4310786712      -13.6799070505       -6.6836251809
 C       -14.5369742516      -12.6023472520       -6.9496109964
 O       -15.7250439719      -12.8688973885       -6.6683755695
 C       -14.2201496274      -11.2588663104       -7.5757633322
 C       -15.4518121897      -10.3097507301       -7.6954661926
 C       -15.8979751054       -9.6137283251       -6.3704750842
 O       -16.0641192727      -10.2652407959       -5.3669112538
 C       -16.1384412909       -8.1081918382       -6.3483422070
 C       -14.8464270287       -7.3368867778       -6.7286570668
 O       -13.8214018371       -7.9691781851       -6.7492360274
 C       -14.9050180816       -5.9263996116       -7.1514494087
 C       -13.5073905232       -5.3609155219       -7.4947091108
 C       -13.4309210958       -3.8623193071       -7.4023040668
 O       -14.2736203687       -3.2189894045       -6.7423612695
 C       -12.3673677210       -2.9990552224       -8.2466893682
 C       -11.0064809038       -2.9951692769       -7.3318610703
 O       -10.8684384628       -3.6901473561       -6.3380794232
 C        -9.8843148294       -2.0080560939       -7.6642412573
 C        -9.3224007631       -1.0873419755       -6.5026119290
 C        -9.6703596130        0.3655008840       -6.7927475401
 O       -10.0714817954        0.7071758581       -7.8640846129
 C        -9.0201172960        1.4792713525       -5.9855565533
 C        -7.6024879393        1.5895840908       -6.6468097027
 O        -6.6441774980        0.8358156837       -6.3300585355
 C        -7.3680956176        2.7217291929       -7.6365569800
 C        -5.8634963009        2.6611492717       -8.0364219079
 C        -5.7116651479        3.5582463127       -9.2775623491
 O        -5.5468648189        4.7734487706       -9.2106916400
 C        -5.5213335482        2.7778531093      -10.6393918558
 C        -4.2640204930        1.8802087206      -10.5740296237
 O        -4.2779592803        0.7128159576      -10.9301602516
 C        -2.9716688330        2.6290545382      -10.0890378164
 C        -1.8353709033        1.6617282286       -9.7850108680
 C        -0.4411388100        2.3181983435       -9.7501179559
 O        -0.1925707358        3.4079906605      -10.3361729750
 C         0.7341482361        1.5566943719       -9.0028090359
 C         2.1073158626        2.2240651510       -9.2686788722
 O         2.9194938800        1.6541732111      -10.0007318979
 C         2.4043967044        3.6179420332       -8.6416801493
 C         3.5043013305        4.3231701011       -9.4068897600
 C         3.0267133802        5.5114785284      -10.3178278476
 O         1.9059030732        6.0120147616      -10.3729701036
 C         4.0693762675        6.0107279325      -11.3230499780
 C         4.0079018178        5.0528263766      -12.5909754332
 O         4.7819201084        4.1441497768      -12.9175793037
 C         2.7669908116        5.2098701247      -13.5581696336
 C         2.9023450883        6.0969616759      -14.7731327532
 C         3.3422034722        5.2714964216      -16.0177950349
 O         3.7805362853        4.1514698451      -15.9273612667
 C         3.3188698697        5.8564421877      -17.4466219389
 C         4.8138046863        5.8870231360      -17.8983143645
 O         5.1493708510        5.6751151329      -19.0484475436
 C         5.9228014062        6.5556647502      -16.9126500004
 C         7.4123002375        6.1327019638      -17.1462236677
 C         7.5278923063        4.7301400070      -16.5639559219
 O         6.8019873027        4.2901661890      -15.6585242064
 C         8.6758065787        3.7815007195      -17.0562910194
 C        10.0263611269        4.3914127493      -16.4304115301
 O         9.9984349418        5.3926490001      -15.7475494712
 C        11.4296235508        3.8180539457      -16.7626687600
 C        12.0244647542        3.2011738612      -15.4757913638
 C        11.6526028694        1.7552042055      -15.2594424404
 O        10.9127344575        1.1130432258      -16.0053081735
 C        12.1336647283        0.9826916612      -13.9844836931
 C        11.0063615755        0.0582790099      -13.5790534450
 O        11.1950384556       -1.1279943827      -13.6330687441
 C         9.6264060188        0.5851014847      -13.1576759581
 C         8.5267474128       -0.4109481773      -13.4151012251
 C         7.1074639569        0.1491369654      -13.2758101972
 O         6.9247985086        1.3477817602      -13.4066936571
 C         5.9963631696       -0.8886536435      -13.1648272032
 C         4.9207832406       -0.5421722519      -14.3477758174
 O         4.6965106254        0.5957355581      -14.6166919677
 C         4.0835945459       -1.6727905900      -14.8418409934
 C         6.4260421648       -2.2740190452      -13.1972108299
 C         5.1665873508       -0.5059492564      -11.8323258447
 C        13.3868847988        0.0746251208      -14.4370910200
 C        12.5031332999        2.0008069702      -12.8305200430
 C         8.3310939139        2.3680978740      -16.3601997678
 C         8.6123237742        3.5809616592      -18.5825134802
 C         2.6923319496        4.8199951321      -18.3486575170
 C         2.7555278089        7.3480930516      -17.4986238021
 C         3.7465697281        7.4735273668      -11.7905012046
 C         5.5465570686        5.9192913983      -10.7931074715
 C         0.3845761320        1.3125148438       -7.5329415424
 C         0.8471699594        0.1358894907       -9.6606927465
 C        -6.8164502686        2.0856259117      -11.0492783523
 C        -5.1625928667        3.8930717680      -11.6948232869
 C        -9.8866743660        2.7532728789       -6.2925986884
 C        -8.9501132717        1.1906682863       -4.4659355271
 C       -12.0414663589       -3.6267620069       -9.6763155077
 C       -12.8420754263       -1.5713884004       -8.3733012891
 C       -17.1491130779       -7.7485281124       -7.4815617270
 C       -16.5239231288       -7.6403851537       -4.9394123372
 C       -12.0981711779      -13.1780969715       -7.2275353844
 C       -13.8012612461      -14.9578508609       -7.4159746921
 C       -14.7144849599      -14.5268873990       -0.6092360646
 C       -16.2628787253      -16.4659325554       -1.3000778284
 H       -17.3832247840      -13.3395353816        0.5115672975
 H       -18.1772421712      -14.8433118738       -0.0900661168
 H       -18.6326458388      -13.1679897719       -0.6332991244
 H       -13.6145859680      -16.5974677654       -3.0261653848
 H       -13.0159882428      -14.9797164544       -2.4123472096
 H       -13.1959226092      -15.8525277639       -5.4401890505
 H       -11.9459456744      -15.2714204321       -4.3952765974
 H       -13.7465554684      -11.4132460550       -8.5949016474
 H       -13.3950668359      -10.7693088278       -7.0267544153
 H       -16.2978369461      -10.8233003740       -8.2290609917
 H       -15.1024041524       -9.5194380336       -8.4240095351
 H       -15.4169232168       -5.4197121702       -6.3064514272
 H       -15.5425161043       -5.8173490298       -7.9639368138
 H       -13.0688459614       -5.7343609038       -8.3603476558
 H       -12.9217693512       -5.7211980260       -6.6304077808
 H       -10.0763833544       -1.4056877572       -8.5668803410
 H        -9.1012749948       -2.6904742973       -7.8798195947
 H        -8.2554598503       -1.0623420660       -6.5450246315
 H        -9.4937806250       -1.6194259618       -5.5368383858
 H        -7.4563056276        3.7589277154       -7.1800958246
 H        -8.1222355314        2.7308211504       -8.4047209480
 H        -5.5896619626        1.6737704707       -8.3790206597
 H        -5.2848262739        2.9280208467       -7.0978092146
 H        -3.1340743579        3.0651035488       -9.0757376144
 H        -2.5517502886        3.3482199188      -10.8720630542
 H        -1.7634781552        0.9426681647      -10.6056124031
 H        -2.0854162423        0.9869481312       -8.9062919990
 H         2.7996720604        3.5158622671       -7.5323817056
 H         1.3950938618        4.0781725098       -8.5314503338
 H         3.9852328195        3.4857744033      -10.0102309599
 H         4.1944567654        4.7379907072       -8.7104855353
 H         1.8762408124        5.5507441664      -12.9673800710
 H         2.5974998443        4.1875712013      -13.8150654368
 H         3.5726485207        6.8986498450      -14.5141156861
 H         1.9727633885        6.5636320725      -14.9092052593
 H         5.6745242092        6.2714402707      -15.8492595784
 H         5.8552473116        7.6172398585      -17.1131126106
 H         8.1125165936        6.7274741651      -16.5802978014
 H         7.7095868003        6.1595759165      -18.2166862023
 H        12.0544450423        4.6037253474      -17.2492185681
 H        11.1939124446        2.9780089389      -17.4211597012
 H        11.8310399100        3.7781041689      -14.5918838710
 H        13.0666305708        3.3782461972      -15.4451042345
 H         9.3550805199        1.5378639316      -13.6860915850
 H         9.6543288889        0.8110355169      -12.0838188706
 H         8.6146064049       -1.2682191303      -12.7042744934
 H         8.6733336583       -0.9351468358      -14.3229899563
 H         4.5984347542       -1.9753806945      -15.7282347943
 H         3.1543118400       -1.3055152811      -15.0325401566
 H         4.0278370059       -2.4764623576      -14.1062279466
 H         5.6323214011       -2.9664545658      -13.2320472605
 H         6.9914549341       -2.6125741980      -12.3288905322
 H         6.9819235985       -2.2635660187      -14.1343415577
 H         5.1599462503        0.5451474104      -11.6124833665
 H         5.4671249581       -1.0407268259      -11.0100567772
 H         4.1187230656       -0.8137073813      -12.0243986306
 H        14.2037114168        0.6392267379      -14.9326148692
 H        13.1558346955       -0.5854240879      -15.2589914610
 H        13.7561887940       -0.5687778067      -13.6301173798
 H        13.2573473055        2.6680958597      -13.2574020554
 H        12.7275755692        1.5260181859      -11.8817879579
 H        11.6641652444        2.6718530756      -12.5427523284
 H         8.6408355308        2.4963157862      -15.3462807907
 H         8.9373119566        1.5066292144      -16.8078578635
 H         7.2690866325        2.3937016132      -16.2503507419
 H         8.3436394630        4.5539693223      -19.1929788902
 H         7.7439407181        2.9406739352      -18.8725526529
 H         9.4094547765        3.0908431504      -19.0088486487
 H         1.6143445085        4.9713461892      -18.3697936548
 H         2.8843113351        3.7597322950      -17.9285894528
 H         2.9904777653        5.0733168382      -19.3296749813
 H         2.8032116654        7.8717864064      -18.5149404899
 H         3.2988851633        7.8569845467      -16.6741700643
 H         1.6859577490        7.3107788757      -17.2783371547
 H         4.3511901924        8.1997948043      -11.1973594353
 H         2.6776054458        7.7189093528      -11.6024950140
 H         4.0065142811        7.6290045840      -12.7930724445
 H         6.1445592624        6.5355840805      -11.3666975415
 H         5.8136599400        4.8825318218      -10.9707462591
 H         5.5733568667        6.2449227932       -9.7230526663
 H         0.2819873077        2.1213503626       -6.9261176017
 H         1.0877282413        0.6412146451       -7.0875160108
 H        -0.5480309813        0.7496723878       -7.4163887570
 H        -0.2196239582       -0.1453191614       -9.5646140342
 H         1.5073304227       -0.5380882916       -9.1245308499
 H         1.2621015662        0.0595075859      -10.6878869507
 H        -7.2297722659        1.5549828235      -10.2007184770
 H        -6.8029809529        1.3350070515      -11.8350876946
 H        -7.6084543776        2.8222635427      -11.3551605382
 H        -5.3991462609        3.6764760080      -12.7061963953
 H        -4.0817490957        4.1243755269      -11.6535528150
 H        -5.6768580659        4.7665303398      -11.3873307683
 H       -10.9305981360        2.5671378453       -6.1113234675
 H        -9.8786444264        2.7378906914       -7.3795175591
 H        -9.5871580016        3.6727841495       -5.8083533811
 H        -8.5719133764        2.1178723781       -4.0361990331
 H        -8.2565052717        0.3787038531       -4.2645631284
 H        -9.9327118536        0.9109308480       -4.1262879726
 H       -11.6029469385       -2.8042327697      -10.2430757062
 H       -13.1127929361       -3.8674833165      -10.0575464702
 H       -11.4461944123       -4.5660590577       -9.6645020939
 H       -13.6562800805       -1.4807130484       -9.1063515385
 H       -12.0492684668       -0.8600818863       -8.6634157859
 H       -13.1450744390       -1.1807125449       -7.4257693154
 H       -16.6819289835       -8.0112274144       -8.3950174785
 H       -17.3795710079       -6.6925101866       -7.4545289634
 H       -18.0487164193       -8.3490027003       -7.2624227053
 H       -15.6642501485       -7.8945342404       -4.2524578848
 H       -17.2146104371       -8.2436916075       -4.4478021241
 H       -16.7000764423       -6.5567010243       -4.8493263632
 H       -11.7788672067      -12.2318962712       -6.6910083417
 H       -12.1470392441      -12.8970595954       -8.2622243153
 H       -11.2587279742      -13.8507216434       -6.9831745474
 H       -14.7177028785      -15.3808912023       -7.0910173384
 H       -13.0168514712      -15.6128722958       -7.4353341400
 H       -14.0120613097      -14.6432089166       -8.4931486024
 H       -14.2321098821      -13.5870762885       -0.9328283554
 H       -13.8490816563      -15.2216118133       -0.5231636570
 H       -15.1363379527      -14.4903197026        0.3105050553
 H       -16.9008824340      -16.8648700687       -2.0642679796
 H       -16.8695048009      -16.4427218336       -0.3871291559
 H       -15.4357226768      -17.2195215506       -1.0987492063
 Na      -16.1490969250      -12.6130499064       -4.5655371833
 Na        5.3402371140        2.7929055382      -14.6461068481
