232

 C       -21.5815570000       -6.5677332125        0.6333765284
 C       -20.9731560159       -5.6259767328       -0.4529171261
 O       -19.8318068322       -5.0949719808       -0.4389388506
 C       -22.0396614022       -5.2687698278       -1.5493560826
 C       -21.2766192909       -4.4609499543       -2.6276891340
 O       -20.7853986936       -3.3847917653       -2.3139281821
 C       -20.9297832135       -4.9727775889       -4.0053636550
 C       -20.0729241163       -3.9935001108       -4.9370007559
 C       -18.5414095388       -4.2272001419       -4.9182336884
 O       -17.9586776146       -4.7544358105       -4.0027042724
 C       -17.6222823576       -3.8505784998       -6.2072861301
 C       -16.9746230893       -2.4929749823       -5.4747154467
 O       -17.5730436553       -1.4512552729       -5.6073781757
 C       -16.0012473333       -2.6621026416       -4.3024586876
 C       -16.3604706052       -1.5736922660       -3.2472324674
 C       -15.9873889164       -1.9753090690       -1.8641701128
 O       -16.5811734905       -2.8857708566       -1.2541860055
 C       -14.7913756250       -1.4343074797       -1.0518743577
 C       -13.6422368678       -2.2632946746       -1.7592308514
 O       -13.2133007236       -1.8886848625       -2.8325347060
 C       -13.1642476297       -3.5580044550       -1.2091258866
 C       -11.9175839038       -3.5081448185       -0.3269630959
 C       -10.6402331811       -4.1758550620       -0.9275545940
 O       -10.6304964565       -4.8664715294       -1.9122948265
 C        -9.2894915285       -3.8367425465       -0.2341059575
 C        -8.5821710224       -2.7499277723       -1.1411149454
 O        -8.5367731660       -1.6030147735       -0.8087799984
 C        -7.9065020552       -3.3417187215       -2.4895769689
 C        -6.9397645128       -2.2796915790       -2.9617055955
 C        -6.5276439422       -2.3748525599       -4.4500616522
 O        -7.0600296647       -3.2549033243       -5.1249153220
 C        -5.6866741515       -1.2308755156       -5.0783506531
 C        -4.4817279241       -1.7894211540       -6.0438135371
 O        -3.5330223440       -2.3082972727       -5.5512219923
 C        -4.5310924121       -1.5420446132       -7.6112741145
 C        -3.2117798977       -1.1640774952       -8.2846328852
 C        -3.3684359924       -0.5923816333       -9.7093576587
 O        -4.4443696120       -0.3070556209      -10.2128188548
 C        -2.0510068158       -0.2409226669      -10.5215533123
 C        -1.1983452902       -1.5416975990      -10.9359964639
 O        -1.3500664888       -2.6123433771      -10.3292731166
 C         0.0357706634       -1.6194634369      -11.9966168510
 C        -0.3523905612       -2.7157138301      -13.0190418338
 C         0.8011804089       -2.9111829301      -14.0013745891
 O         1.6583548192       -2.0453693923      -14.0310472060
 C         0.7648322444       -4.0403993033      -15.0278334232
 C         2.1133555490       -3.7398664803      -15.8956626329
 O         2.0518313731       -3.2595597770      -16.9703776316
 C         3.4756400950       -4.0344649283      -15.1294451279
 C         4.6802031019       -3.3481937094      -15.7231691156
 C         5.7253160391       -3.2672884436      -14.6050322843
 O         5.4858709449       -2.8498411144      -13.4993104123
 C         7.3585054427       -3.5694943156      -15.0988338433
 C         7.8726348940       -2.1438590134      -15.2885796824
 O         7.0857805413       -1.1863372939      -15.3025680713
 C         9.3872132785       -1.8962003080      -15.3374601558
 C         9.8571991248       -1.2664718743      -13.9941960787
 C         9.7157878977        0.2649497189      -14.1042761186
 O         9.2723266899        0.7793863921      -15.0711384151
 C         9.7439241276        0.9754618109      -12.6701607659
 C         8.3185133385        0.9371277708      -12.0844549134
 O         8.1295561474       -0.0102670132      -11.3443290191
 C         7.2539154449        1.9072900665      -12.6319629026
 C         6.0675979910        1.0478732185      -13.3968431423
 C         5.4031342655        1.7570264981      -14.4950024620
 O         6.0482367462        2.3450919377      -15.3975930508
 C         3.9398504911        2.1400852180      -14.4134757220
 C         3.2269361188        1.6363632962      -15.6648695058
 O         2.5622944217        2.3893903785      -16.4277695535
 C         3.4153024170        0.0955007809      -15.9617673155
 C         3.0715890631       -0.2606524330      -17.4239179952
 C         4.1854143606        0.1240857318      -18.2978142661
 O         5.3735579869       -0.1117244237      -18.0980034827
 C         3.8463722223        0.9987379078      -19.5899388028
 C         5.1707007278        1.4649831673      -20.3266516175
 O         5.7913282931        0.7046839994      -21.0420493151
 C         5.6970795659        2.8996081946      -20.0286427832
 C         7.1838047903        2.8866979968      -20.4826761629
 C         7.9575051021        1.9483161205      -19.5325257856
 O         7.7749094636        2.2441877288      -18.3581300118
 C         8.8549094560        0.8315360289      -20.1093027650
 C         8.6413474114       -0.4503210795      -19.1020903791
 O         9.0420731934       -0.4247282755      -17.9339567672
 C         8.1525153072       -1.8949416097      -19.7372934966
 C         8.5967409917        0.6085592302      -21.6497190446
 C        10.3457157557        1.2183857849      -19.9730997989
 C         3.1409076212        0.2526801136      -20.8894008785
 C         2.9429186981        2.2001357051      -19.2481964397
 C         3.3691093977        1.5526488954      -13.1557943858
 C         3.9116032569        3.6670966991      -14.2864432831
 C        10.6403076385        0.1977108023      -11.7194717403
 C        10.2971295831        2.3705885784      -12.8098556023
 C         8.0783676562       -4.2927342478      -14.0072517322
 C         7.4359491399       -4.3828560345      -16.4529240857
 C         0.8889750024       -5.3826461114      -14.3061313226
 C        -0.3916630949       -3.9370440457      -15.9035836975
 C        -2.4555357847        0.6171962712      -11.7554325952
 C        -1.1187034519        0.5883084582       -9.6621748241
 C        -6.7679006267       -0.5179973843       -6.0101958297
 C        -5.0292623268       -0.2790442591       -4.1028806722
 C        -9.4113697120       -3.3752687727        1.2123649934
 C        -8.2840464274       -5.0368446581       -0.0802040999
 C       -14.5756499508        0.0712622783       -1.1631887338
 C       -14.9118183409       -1.7244879534        0.4287877635
 C       -16.6229185706       -4.9110505363       -6.3397813335
 C       -18.4007170596       -3.4822823430       -7.4781046258
 C       -22.5778427565       -6.6084845674       -2.1068151356
 C       -23.0198464865       -4.2412400245       -1.0365722031
 H       -20.8598578536       -6.7010975243        1.4308901826
 H       -21.8733884061       -7.5101745727        0.3675025125
 H       -22.4173348272       -6.1073078214        1.1557227633
 H       -21.8397406779       -5.3412572303       -4.4742914784
 H       -20.3447357101       -5.8557676500       -3.7736634914
 H       -20.0078900152       -2.9826017123       -4.4269368448
 H       -20.4498332850       -3.8963289807       -5.9574600986
 H       -14.9843295122       -2.5616706005       -4.4731869035
 H       -16.1333639153       -3.7321246906       -3.8231026551
 H       -17.4790977681       -1.5291071466       -3.2485714096
 H       -15.8583449431       -0.6196548531       -3.5186741212
 H       -12.9377828927       -4.1603491037       -2.0771743721
 H       -13.9814076028       -4.1601267325       -0.7125203737
 H       -12.1444611997       -4.2266849361        0.4887616647
 H       -11.6575648382       -2.5483980254        0.1071049135
 H        -8.6178745750       -3.5441111967       -3.2572509267
 H        -7.3599042389       -4.2128194130       -2.3751368153
 H        -6.0483028008       -2.2624722926       -2.2930397676
 H        -7.3567080433       -1.2577383428       -2.8885104123
 H        -5.1902983432       -0.7383627342       -7.9602973402
 H        -4.8091327297       -2.5269632226       -8.0344397430
 H        -2.4927713706       -2.0666108047       -8.2712942554
 H        -2.6204042833       -0.4555147251       -7.6559095647
 H         0.9480646286       -1.8543136371      -11.4524062329
 H         0.1397099885       -0.6265720216      -12.5215450656
 H        -1.1159489389       -2.2548247539      -13.6161269809
 H        -0.7332509459       -3.6063294084      -12.6559532435
 H         3.6528517294       -5.1382073593      -15.1065148405
 H         3.2256059770       -3.6675182147      -14.1690094846
 H         4.3677791142       -2.4941944139      -16.3207062117
 H         5.1105391464       -4.0128490730      -16.5201271805
 H         9.8120162563       -1.1807969334      -16.0490874054
 H         9.7809915838       -2.9356150613      -15.4506362894
 H        10.9025532076       -1.5117676415      -13.9077815791
 H         9.2645384091       -1.6085961908      -13.0923709920
 H         7.8276627080        2.6476321615      -13.1667860992
 H         6.8330366780        2.3650261762      -11.7762310317
 H         5.4744334510        0.6479906287      -12.5562515069
 H         6.4258305498        0.0911218242      -13.7265102268
 H         2.7283763901       -0.4962773354      -15.2485859558
 H         4.5094935393        0.0260767347      -15.7958600295
 H         2.1236984825        0.1135797962      -17.7939938255
 H         3.0037515082       -1.3146147331      -17.5283771183
 H         5.5325526229        3.1909737339      -19.0310036722
 H         5.2330425644        3.6524582216      -20.6808857338
 H         7.6810460772        3.8760412490      -20.5139144965
 H         7.2468869304        2.6235935022      -21.5244483888
 H         9.0775457026       -2.4846156720      -20.1355108241
 H         7.5537209659       -1.7592464684      -20.6589424105
 H         7.4183219030       -2.3861724897      -19.1085113874
 H         9.3143244952       -0.0609198852      -22.0357585035
 H         8.7044708848        1.5873446294      -22.2087747258
 H         7.6455082822        0.0136291990      -21.9134203668
 H        10.9254126060        0.3676770502      -20.4050442540
 H        10.6853359923        1.3453400588      -18.9110980437
 H        10.5924130529        2.0401936216      -20.6708014772
 H         3.5019006067       -0.7376746846      -20.9541519382
 H         3.3273274049        0.9359027117      -21.7487026238
 H         2.1360156198        0.1680205718      -20.7262640158
 H         3.3248919927        2.7102021208      -18.3841077055
 H         1.8894149229        1.9034503675      -19.1305526440
 H         2.9495800243        2.7607228246      -20.1569417672
 H         3.5273435944        0.4539518503      -12.9933618292
 H         2.3217031405        1.7899307869      -13.1369205847
 H         3.8661350867        2.0420606962      -12.3334413219
 H         4.2864859150        4.0393089967      -13.3120407754
 H         2.8004217443        3.9044195340      -14.4984315468
 H         4.5293716415        4.2153803829      -15.0412150404
 H        10.8522462402        0.6758317135      -10.7619025135
 H        11.5583004803        0.1379471909      -12.1886908758
 H        10.2838758351       -0.7741092868      -11.4159925394
 H        10.1766993617        2.7737430612      -13.8024126766
 H        11.3679730622        2.4618560373      -12.6625299075
 H         9.8178562107        3.1092464729      -12.1077250660
 H         8.2001884084       -5.3015931713      -14.2437455246
 H         7.3933123724       -4.4341090881      -13.1743747529
 H         8.9639256864       -3.8430887745      -13.5783445385
 H         6.6339262794       -5.1568951968      -16.2974142408
 H         8.5427248230       -4.6803701575      -16.3682564489
 H         7.3040703611       -3.7762129624      -17.3417544467
 H         1.5315326804       -5.3795014396      -13.4168882170
 H         1.3285021462       -6.0446871619      -15.0206938566
 H        -0.1115800906       -5.7790740554      -14.0701188288
 H        -0.3767679382       -2.9713778458      -16.4336295292
 H        -1.2957615850       -3.9459457469      -15.2946575641
 H        -0.3704029926       -4.6484801872      -16.7397333550
 H        -1.5984666488        1.3406543827      -11.9645298561
 H        -3.3722230553        1.0794568698      -11.4852129662
 H        -2.4537434094       -0.0296322323      -12.6527924752
 H        -0.9824183611        0.1734852324       -8.6073037928
 H        -1.5237428153        1.5841561301       -9.6136013789
 H        -0.0951808052        0.6068227231      -10.1193399680
 H        -7.2648302002       -1.2298683268       -6.6821963937
 H        -6.3083035623        0.2350284463       -6.6423766824
 H        -7.4838518836       -0.0733994097       -5.2991304177
 H        -5.6639582547        0.2181445498       -3.3261771761
 H        -4.4917437528        0.6094469936       -4.5929520977
 H        -4.2079954415       -0.8485777103       -3.5842524353
 H       -10.1883747949       -3.9599383007        1.7805492374
 H        -9.8233720973       -2.3677877557        1.2121050000
 H        -8.4471432917       -3.3699953075        1.7177882046
 H        -8.6825738339       -5.5736630221        0.7677391069
 H        -7.3546398906       -4.4990708130        0.1508041309
 H        -8.1465967196       -5.6287896255       -1.0071122574
 H       -15.5457576549        0.5287201556       -0.8955394780
 H       -14.4057971796        0.5481743284       -2.1831461738
 H       -13.9327050854        0.4062168306       -0.3537523991
 H       -13.9886793700       -1.2752459617        0.9583162199
 H       -14.9369637175       -2.7895835657        0.8182593854
 H       -15.9135071458       -1.3254693345        0.8121908387
 H       -17.0981677973       -5.8128227353       -6.8879468929
 H       -16.2896821180       -5.2855912148       -5.3988841532
 H       -15.7975216505       -4.7012063685       -6.9887992005
 H       -19.2742252833       -2.7918603230       -7.1302447447
 H       -18.6640830744       -4.3559130880       -8.0945241604
 H       -17.8898226206       -2.9040270157       -8.2113182618
 H       -21.7399809973       -7.2186646494       -2.4841305843
 H       -23.3636942212       -6.5425702108       -2.9268435755
 H       -23.0698152653       -7.1337204597       -1.2612585361
 H       -23.7665946035       -4.6690028962       -0.3277174771
 H       -23.5477965892       -3.6554743712       -1.8149233060
 H       -22.5283664989       -3.4456214652       -0.5358091624
 Na      -18.6604618940       -3.6611828095       -1.9612717402
 Na        7.4702423687        0.6769909226      -16.7894966131
