232

 C       -20.9913035263       -6.7031996770        0.5619883722
 C       -20.7389516875       -5.6808648002       -0.5749368973
 O       -19.6068663423       -5.1695587055       -0.5039277534
 C       -21.9151025390       -5.2648232874       -1.5505378790
 C       -21.2688619364       -4.4165123355       -2.6014838113
 O       -20.8890708372       -3.2670768785       -2.3065758836
 C       -21.0755027476       -5.1042998890       -4.0254506306
 C       -20.1316306156       -4.1578510674       -4.9494640616
 C       -18.5796117876       -4.2759491459       -4.8823428357
 O       -18.1209708258       -4.9161441287       -3.9235457263
 C       -17.6853917554       -3.7478764516       -6.0555689884
 C       -16.9991855475       -2.3451678421       -5.4280481286
 O       -17.3308730395       -1.2600456236       -5.8294133756
 C       -16.0404025641       -2.5710588035       -4.2388556192
 C       -16.2669413579       -1.4469514219       -3.1835984207
 C       -15.9477700665       -1.9039492407       -1.7510597156
 O       -16.7235515384       -2.6609579312       -1.1352802412
 C       -14.5412083559       -1.5061275524       -1.1340895502
 C       -13.4252952681       -2.4115237926       -1.8995465388
 O       -12.8024965767       -1.8796637156       -2.8001792437
 C       -13.1063522958       -3.7670067281       -1.3210764698
 C       -11.9122405566       -3.4393154028       -0.3651053016
 C       -10.6626746854       -3.9688383926       -0.9562741336
 O       -10.5786103697       -4.7030944930       -1.9432142020
 C        -9.2719315329       -3.7074993708       -0.2264536976
 C        -8.5611201626       -2.6462909829       -1.1455485265
 O        -8.7557710294       -1.4884728804       -0.9366245818
 C        -7.6495973108       -3.1688789334       -2.2946210308
 C        -6.8675658883       -1.9495184005       -2.9329984558
 C        -6.6802121516       -2.2006587845       -4.5179769219
 O        -7.1570335939       -3.1483591604       -5.0973969154
 C        -5.8375681785       -1.0752513135       -5.4694134030
 C        -4.7176554547       -1.7405954799       -6.2648755522
 O        -3.9038423187       -2.4587235905       -5.7676407414
 C        -4.6556399775       -1.3445125349       -7.8033955241
 C        -3.2418459214       -1.1935496386       -8.4154493133
 C        -3.3351854084       -0.5331100340       -9.7775408672
 O        -4.4337742018       -0.2097546162      -10.1821693051
 C        -2.0957835899       -0.2245638507      -10.7615858272
 C        -1.2530489627       -1.5063762147      -10.9833243247
 O        -1.4195715451       -2.5500033223      -10.3257852629
 C        -0.1245797602       -1.5832369038      -11.9991258773
 C        -0.3536609907       -2.7584608954      -12.9784498278
 C         0.8764260694       -2.7392575586      -13.9869744337
 O         1.7855743873       -1.9968647781      -13.9605849964
 C         0.8523597072       -4.0417258032      -15.0169630933
 C         2.2133126752       -4.0004465897      -15.8952004381
 O         2.2795259468       -3.5843790030      -17.0013946179
 C         3.5204786853       -4.3834532472      -15.0378119644
 C         4.7026400887       -3.5780853425      -15.6585894801
 C         5.7347924895       -3.4125191802      -14.6385029661
 O         5.4957544390       -3.0384286276      -13.4906993316
 C         7.2427438671       -3.7881661979      -14.9812801947
 C         7.9665498920       -2.3665933906      -15.1454054192
 O         7.2039178316       -1.4776755705      -15.4510804600
 C         9.5358017071       -2.1033595721      -15.1482865785
 C        10.1327726066       -1.2187132364      -14.0256099923
 C         9.6199566252        0.2326660011      -13.9408040658
 O         9.0347359137        0.8922495139      -14.7767184573
 C         9.8367514018        0.9577606052      -12.6631533003
 C         8.3421196084        0.8137962007      -12.0610375834
 O         8.1523207650       -0.1821852036      -11.3714771120
 C         7.2916589821        1.7907332421      -12.4552576153
 C         6.3495660694        1.1511791448      -13.4963473991
 C         5.5481423503        1.9466571430      -14.5598289781
 O         6.0391521654        2.1949349240      -15.6681190809
 C         4.0577789014        2.2427340858      -14.3665074144
 C         3.3318520166        1.6254233475      -15.5733168410
 O         2.4704424157        2.2791524842      -16.2645098930
 C         3.3723344320        0.0489030995      -15.8419088460
 C         2.9604434789       -0.2461633215      -17.2749878258
 C         4.0639217655        0.2092460730      -18.2806577273
 O         5.2254251143       -0.1083341684      -18.1241888373
 C         3.7398935548        1.1661906393      -19.5562013552
 C         5.0797611511        1.4706424794      -20.2140850872
 O         5.7690326210        0.5062723106      -20.4386637444
 C         5.6011606634        2.8887013181      -20.4106108282
 C         7.1206584728        2.9117540719      -20.7368039548
 C         7.8234995170        1.9512490686      -19.6794808985
 O         7.6627121457        2.1427591639      -18.5085616919
 C         8.9005710934        0.7436687733      -20.0266790330
 C         8.5962286916       -0.4871682478      -19.2774169839
 O         8.8068814679       -0.4427846525      -18.0517964186
 C         7.8761073544       -1.6579105642      -19.8751799934
 C         9.1188189081        0.3915959729      -21.5576920758
 C        10.1940228685        1.3848221970      -19.6466755076
 C         2.8015043996        0.2166379939      -20.3257952238
 C         3.0141345147        2.4409434394      -19.0572292269
 C         3.4477075811        1.6971692291      -13.0648326399
 C         3.9169820128        3.7620688593      -14.2832228470
 C        10.8253401598        0.4127324668      -11.6824384115
 C        10.2233588871        2.4613709809      -12.9830626611
 C         7.7064814126       -4.5957819645      -13.7624227855
 C         7.7200237760       -4.5729694352      -16.2505954966
 C         0.8052175790       -5.2482258226      -14.1426447309
 C        -0.4688261574       -3.9653227879      -15.8385151834
 C        -2.7918213380        0.0673967000      -12.1350421876
 C        -1.2766782251        0.9273929012      -10.2016327041
 C        -6.8658800690       -0.3460686322       -6.3316341763
 C        -4.9768536397       -0.0528405381       -4.5929007545
 C        -9.3161191614       -3.1757586676        1.1916903313
 C        -8.6541242414       -5.1271190310       -0.1428070381
 C       -14.3155642349        0.0005962244       -1.3471721748
 C       -14.6641827984       -1.7063995544        0.4306434167
 C       -16.5092076995       -4.6848013173       -6.3222354583
 C       -18.4919351879       -3.3623484398       -7.2891946007
 C       -22.5842116946       -6.5289061715       -2.1230261386
 C       -22.8024527678       -4.3874346384       -0.6614950771
 H       -20.7206990275       -6.2366776794        1.5483759962
 H       -20.4476400787       -7.6144155819        0.4808963068
 H       -22.0852443094       -6.9745824296        0.7658473776
 H       -22.1266450349       -5.0672393487       -4.4521810316
 H       -20.8120104875       -6.1325429851       -3.8570264335
 H       -20.2259971162       -3.1508184425       -4.6355868667
 H       -20.4310537596       -4.2411339695       -5.9866482574
 H       -15.0185695191       -2.5789018007       -4.5470900491
 H       -16.2598454527       -3.5194859308       -3.5501673609
 H       -17.2634484823       -1.0509413132       -3.2100116124
 H       -15.6048615273       -0.6324196109       -3.4452149994
 H       -12.8476074327       -4.4070081650       -2.1217670129
 H       -13.9776776144       -4.2862455058       -0.7925907909
 H       -11.9602045571       -4.0327600720        0.5688606351
 H       -11.8466183509       -2.4021641818       -0.1373222566
 H        -8.1872707695       -3.7894682525       -3.0426614960
 H        -6.9129923822       -3.8368520932       -1.8249283715
 H        -5.8240116053       -2.0074700643       -2.5972585465
 H        -7.2972524767       -0.9854503675       -2.5549692663
 H        -5.0909306305       -0.3864204170       -7.9907979491
 H        -5.2029226025       -2.0724334667       -8.3641868125
 H        -2.9021420658       -2.2587147295       -8.4481567608
 H        -2.6181702735       -0.5877250944       -7.7099007177
 H         0.7206098449       -1.6676545189      -11.3562146481
 H         0.0117638478       -0.6457143348      -12.5600921341
 H        -1.2431289791       -2.5008250556      -13.6678124035
 H        -0.5781329092       -3.7287166243      -12.5103310275
 H         3.7310920786       -5.4263780423      -15.2425322115
 H         3.2984928608       -4.2081690002      -13.9811818376
 H         4.5458124835       -2.6561902348      -16.3146844372
 H         5.1287096197       -4.1019308573      -16.4961393654
 H         9.5340737213       -1.5640553453      -16.0484711456
 H        10.1646305421       -3.0307210559      -15.1258203921
 H        11.0967780451       -1.0611163474      -14.3855092634
 H        10.1363086829       -1.8417453612      -13.1371726629
 H         7.7793862599        2.7329396035      -12.9561104969
 H         6.7651406173        2.2551153911      -11.5799634947
 H         5.5620332053        0.5127864789      -12.9615619996
 H         6.7704450113        0.1856366165      -13.9059275006
 H         2.5869494543       -0.2860157607      -15.1617102769
 H         4.3961614457       -0.2342646258      -15.6824731304
 H         2.0356308264        0.2721971008      -17.6056660418
 H         2.7192726393       -1.3404829921      -17.4311524202
 H         5.4807173560        3.4967388503      -19.4753718797
 H         4.9956422511        3.4309208587      -21.1921334520
 H         7.6793944639        3.8370622749      -20.6471374645
 H         7.3661224317        2.6301786240      -21.7412241744
 H         8.5827615114       -2.3487333424      -20.4424074111
 H         7.1038091866       -1.4824333872      -20.5691259963
 H         7.4481119238       -2.0374794385      -19.0200071580
 H         9.4842042673       -0.5766216890      -21.6482340852
 H         9.5946782532        1.1970528674      -22.1267349172
 H         8.0522627532        0.2847861195      -22.0503270780
 H        11.0214874381        0.7541074583      -19.8778353041
 H        10.1258172088        1.7783886502      -18.6288507600
 H        10.3359419131        2.2366086390      -20.3045105587
 H         3.4824372191       -0.3176660490      -21.0114224188
 H         2.0142140917        0.8291725562      -20.8656846769
 H         2.3937676391       -0.5761026174      -19.6902134268
 H         3.4639315433        3.0742726733      -18.2891761814
 H         2.2111775812        1.9238381556      -18.4671824020
 H         2.6522725107        2.9679789697      -19.9590240220
 H         3.3981183038        0.6043333815      -12.9482043042
 H         2.4557273645        2.1391233851      -13.0001070395
 H         4.0237572680        2.1566928189      -12.2617245670
 H         3.7548978364        4.1371873799      -13.3126288388
 H         3.3880643147        4.0589701882      -15.1632648528
 H         4.8496901251        4.2844124807      -14.4151592797
 H        11.1224873131        1.1355037448      -10.8937164182
 H        11.7169576610        0.1075413839      -12.2235976023
 H        10.4066557668       -0.4993019763      -11.1076213353
 H         9.3507003668        3.0988224884      -13.2368264411
 H        10.9260616637        2.4933940382      -13.8609002421
 H        10.5637696689        3.0565038129      -12.1673399973
 H         7.0007422206       -5.2920170507      -13.3314966803
 H         7.9729465642       -3.8912639222      -12.9584599620
 H         8.7332071886       -5.0700671122      -13.9367477255
 H         7.5168369051       -5.5953418541      -15.9459874387
 H         8.7844990915       -4.4778037219      -16.2470121933
 H         7.1633322703       -4.3101557553      -17.0550400709
 H         1.8006114678       -5.3772502528      -13.7964953741
 H         0.4898680401       -6.1850639601      -14.6131958717
 H         0.2111265465       -5.0018185867      -13.2416886724
 H        -0.5279684753       -3.0277580266      -16.3871717368
 H        -1.3370690771       -3.9958724904      -15.2077707730
 H        -0.4955392353       -4.7269984763      -16.5696716516
 H        -2.2171943497       -0.2584220716      -13.0184481068
 H        -3.1731416173        1.0563543149      -12.1069697966
 H        -3.6293039811       -0.5463009719      -12.0419104272
 H        -0.6257547653        0.7054350732       -9.3305305793
 H        -1.9060952874        1.6885385186       -9.8941862774
 H        -0.6664795354        1.2923440046      -11.0015659396
 H        -7.1790997013       -1.0563572659       -7.0984569607
 H        -6.4660423660        0.5211198480       -6.7602584598
 H        -7.7591451326       -0.1112676349       -5.7096649398
 H        -5.5344646012        0.6668921207       -4.1227703382
 H        -4.3834134123        0.5328157507       -5.2241611761
 H        -4.3771979304       -0.5361990236       -3.8637212394
 H        -9.8561669453       -3.8807322412        1.7978469266
 H        -9.7958468965       -2.1696130674        1.2623693667
 H        -8.3547346998       -3.0756917891        1.5663628173
 H        -9.4654106787       -5.6966685904        0.3522609691
 H        -7.7258326803       -5.0247492395        0.3430693561
 H        -8.4965158685       -5.5482718095       -1.1063199541
 H       -15.2855230130        0.5372102360       -1.2844910655
 H       -13.8761936046        0.3044866812       -2.3020886019
 H       -13.6150053604        0.3566441630       -0.6356596769
 H       -13.7028189625       -1.5268132936        0.7988614770
 H       -14.8405347663       -2.6880466859        0.7086510006
 H       -15.3677602289       -1.1022916474        0.8794959974
 H       -16.7080619450       -5.7730707172       -6.4837382566
 H       -15.8033226696       -4.7504224093       -5.5130480027
 H       -16.0345659158       -4.3019501157       -7.2249556826
 H       -18.9880663093       -2.3886404952       -7.0615805502
 H       -19.2186691429       -4.1658036214       -7.4904418492
 H       -17.8505901549       -3.2457950178       -8.1684850527
 H       -21.8872317423       -7.1309051785       -2.5680647347
 H       -23.3068391653       -6.1675974245       -2.8629558966
 H       -23.1277125251       -7.1188343472       -1.4102412420
 H       -23.0691547942       -4.7637303118        0.3318232661
 H       -23.8075412243       -4.2772345676       -1.0753300394
 H       -22.3820961052       -3.3822753830       -0.5876791370
 Na      -18.6674249761       -3.8080239595       -1.8236314316
 Na        7.2845117169        0.5825110546      -16.6755085286
