232

 C       -20.7587869183       -6.9948259969        0.4624488925
 C       -20.5088063182       -5.8988179602       -0.4524374354
 O       -19.3169190109       -5.4776710287       -0.5055934786
 C       -21.6615817011       -5.2720122524       -1.4039457071
 C       -21.0204698991       -4.4918687710       -2.5037588306
 O       -20.7230816641       -3.3052625792       -2.3471308724
 C       -20.9960460421       -5.0784990908       -3.9591686183
 C       -20.4351322006       -4.1710421164       -5.0957788996
 C       -18.7737432759       -4.2656466454       -5.0111305747
 O       -18.3670045218       -4.6365029316       -3.8641948047
 C       -17.7601413203       -3.7203857429       -6.0148056261
 C       -17.0972061172       -2.3080239164       -5.3610179838
 O       -17.3284458228       -1.3102673722       -5.9784252893
 C       -16.2145203809       -2.4555700697       -4.1003289113
 C       -16.3140825848       -1.2341676570       -3.0807162203
 C       -15.8418016164       -1.7356061613       -1.7355302733
 O       -16.5824777425       -2.5148204186       -1.1293474879
 C       -14.5674267292       -1.3056169361       -1.0993802014
 C       -13.3974965395       -2.2677577178       -1.8763565903
 O       -13.0683706056       -1.9229658281       -2.9853917174
 C       -12.9590090464       -3.6876235319       -1.2209426858
 C       -11.7439800581       -3.6909956270       -0.2660741302
 C       -10.4446987846       -3.9976197931       -1.0551000315
 O       -10.5392373229       -4.4477361134       -2.1882054781
 C        -9.0343457433       -3.6926269220       -0.3824973730
 C        -8.4138338999       -2.5475821969       -1.3083418791
 O        -8.7706415171       -1.4337608145       -1.0771302862
 C        -7.3716724860       -2.9820753813       -2.4208161567
 C        -6.8147110895       -1.7742881994       -3.1109447325
 C        -6.6309268730       -2.0547641631       -4.5794025739
 O        -7.0653206096       -3.0453834792       -5.1305515310
 C        -5.9703671034       -0.9039709840       -5.4231844676
 C        -4.9362509889       -1.6795389942       -6.4394056824
 O        -4.3511892670       -2.6445644598       -6.0465097120
 C        -4.8204331410       -1.1287618033       -7.8184521061
 C        -3.3689799288       -1.1961597858       -8.5537261468
 C        -3.5941306476       -0.4846195253       -9.9621343825
 O        -4.6339478718        0.0766563118      -10.2458219553
 C        -2.3433474791       -0.3556292860      -10.9336967796
 C        -1.3961039544       -1.6179684705      -10.9283886216
 O        -1.5516715533       -2.5909836398      -10.2093879891
 C        -0.1641902800       -1.5183631574      -11.9926247815
 C        -0.3074456864       -2.5104379838      -13.0496326273
 C         0.9413784880       -2.7594397595      -13.9549278557
 O         1.8174374855       -1.9977454891      -13.9982981751
 C         0.8587947378       -4.0991040117      -14.8650188108
 C         2.1600588206       -4.0696855964      -15.7354853582
 O         2.1520888614       -3.7328190819      -16.8762788888
 C         3.5754125815       -4.5003596713      -15.0458335533
 C         4.8520907773       -4.1385919253      -15.6939076078
 C         5.8543241394       -3.6676909123      -14.5466583835
 O         5.4406914938       -3.3100969314      -13.4352634285
 C         7.4306157353       -3.8765659757      -14.8565668187
 C         8.0080331702       -2.4649625720      -15.1393878420
 O         7.2423749303       -1.6234394048      -15.4987566990
 C         9.4854845839       -2.2350258568      -15.1717097474
 C         9.9105546675       -1.4270661870      -13.9310116543
 C         9.6193764331        0.1154378460      -14.0486623573
 O         9.2809641254        0.6925207144      -15.0679536302
 C         9.7629207488        1.0600751094      -12.7197759301
 C         8.3234962753        0.8254144749      -12.1475790531
 O         8.1733103691        0.1777349088      -11.1076637262
 C         7.2064572797        1.5836243665      -12.6550517310
 C         6.2244482140        0.7449140633      -13.4038306476
 C         5.5323495188        1.7031547289      -14.3723749230
 O         6.1356821807        2.0085304168      -15.3890752372
 C         4.0421708948        2.3099050990      -14.0243184466
 C         3.1205865150        1.6995724136      -15.1964380479
 O         2.3062941889        2.4957481713      -15.7762730930
 C         3.0776585012        0.1944357359      -15.5212434576
 C         2.9720135872       -0.0762285801      -17.0887847328
 C         4.1113442684        0.4696805389      -18.0081452724
 O         5.2982414903        0.3008767238      -17.7355677545
 C         3.6902465484        1.1579950651      -19.3403805211
 C         4.9961138006        1.2529582471      -20.2251172666
 O         5.5275886996        0.2993878478      -20.7729933845
 C         5.5831759690        2.6627327478      -20.5862361678
 C         7.0952495626        2.5947586237      -20.9896667237
 C         7.7000087942        1.8023642045      -19.8151700780
 O         7.2631086830        1.9677170073      -18.6764656464
 C         8.9321880872        0.8630380251      -20.0581168382
 C         8.6324721510       -0.5549387941      -19.3735525856
 O         8.9526384427       -0.6909833706      -18.2017215035
 C         7.9246059604       -1.7066911110      -20.1612656967
 C         9.3410221134        0.6651446988      -21.6015079721
 C        10.1972943976        1.3354202521      -19.2388491565
 C         2.7881251474        0.1783692757      -20.2892144203
 C         3.0486119707        2.4949765733      -18.9916274803
 C         3.2708998095        2.0056930112      -12.7248404831
 C         3.9503527140        3.8633374143      -14.1606338274
 C        10.8804064201        0.4094383365      -11.8344035614
 C        10.1034855959        2.5403103218      -13.0839016616
 C         8.2263199144       -4.2643205254      -13.5959674073
 C         7.7911810913       -4.8831708142      -16.0509151282
 C         0.6761382773       -5.5057072710      -14.1352402223
 C        -0.3078742639       -3.9434158686      -15.8203760501
 C        -2.9652297721       -0.3343883907      -12.4325308290
 C        -1.5605654915        0.8608974058      -10.5394199391
 C        -7.2490187715       -0.2849748912       -6.1775935995
 C        -5.2685398749        0.2284902601       -4.6549375046
 C        -9.2275498587       -3.1042657611        1.0034840550
 C        -8.1232335400       -4.9416378211       -0.3191593716
 C       -14.0903894056        0.1081532909       -1.4447313552
 C       -14.6031773147       -1.5638871236        0.4655854944
 C       -16.6091526487       -4.8283382581       -6.2167222361
 C       -18.4376150679       -3.2754169363       -7.3177713464
 C       -22.6047975025       -6.3995476104       -1.9909521588
 C       -22.6476855310       -4.4332250432       -0.5814183521
 H       -20.8949262668       -6.6668247731        1.4741338609
 H       -19.9201851584       -7.6488360236        0.4509359766
 H       -21.6809081090       -7.5930257433        0.3194364678
 H       -22.0478129498       -5.3490166047       -4.2190428072
 H       -20.4291596550       -6.0029157151       -3.7549350912
 H       -20.8182165820       -3.1271631003       -4.9825127504
 H       -20.7541908492       -4.5451989239       -6.1372029504
 H       -15.2019141569       -2.6240196409       -4.4196945273
 H       -16.5107009284       -3.2943443476       -3.4149936396
 H       -17.3680172687       -0.9014977712       -2.9518558634
 H       -15.8456796368       -0.3550168643       -3.4987314566
 H       -12.7308149687       -4.4878157391       -1.9801713031
 H       -13.8505298855       -3.9763218320       -0.6657208463
 H       -11.8499519500       -4.5070060842        0.4968496455
 H       -11.6311509777       -2.6868096580        0.2167588427
 H        -7.8374209218       -3.7357763156       -3.1043285771
 H        -6.4728729663       -3.4762319246       -1.9413662955
 H        -5.8781552930       -1.5590141467       -2.6585959892
 H        -7.4540506870       -0.9195036162       -2.9320106783
 H        -5.1533930921       -0.0687141172       -7.9567053737
 H        -5.5817009839       -1.6590835655       -8.4702295789
 H        -3.0668381977       -2.1723487383       -8.7319586358
 H        -2.6907365753       -0.5982728053       -8.0190768141
 H         0.8200699412       -1.6312351963      -11.4939511151
 H        -0.0488059473       -0.5064979951      -12.4168806817
 H        -1.1269642435       -2.4207035111      -13.7658160163
 H        -0.5038099900       -3.4665727623      -12.5228944237
 H         3.4233349360       -5.5617937107      -14.8950065146
 H         3.5988630360       -4.0735944770      -13.9847044594
 H         4.7794501836       -3.3322064278      -16.4643518425
 H         5.3437006606       -4.7275251057      -16.3687073213
 H         9.5110142699       -1.4585419007      -15.9446380944
 H        10.1694304109       -3.0945221994      -15.3186154184
 H        11.0467521505       -1.5952834803      -13.9508109957
 H         9.4719826412       -1.7807968051      -12.9571607959
 H         7.4961444293        2.4158936290      -13.2946967554
 H         6.7367549611        2.0734965792      -11.8678149670
 H         5.4988855223        0.1877309013      -12.8671500808
 H         6.6543333091       -0.0611993340      -13.9656373775
 H         2.1225692011       -0.0397836179      -15.1731965312
 H         3.9478550050       -0.2660247174      -15.0392014021
 H         2.0561547751        0.2555224964      -17.5175945776
 H         2.9191451232       -1.1668747971      -17.2077223919
 H         5.6063124830        3.3676347702      -19.7415521246
 H         5.0797011602        3.1790987077      -21.3449354851
 H         7.5799319364        3.6119953270      -20.9833289971
 H         7.3320116710        2.1409788156      -21.9759949484
 H         8.3810619892       -1.7950562493      -21.2046831689
 H         6.9481985364       -1.3615558185      -20.4334483111
 H         7.8006519099       -2.6668290841      -19.6603172098
 H        10.3633005904        0.4115334596      -21.6911499748
 H         9.1274905304        1.4924504579      -22.2286088286
 H         8.5841496708       -0.1582692124      -21.9832255518
 H        11.0128585375        0.7927304316      -19.7253027807
 H        10.0746672473        1.3547309616      -18.1519774724
 H        10.3390621356        2.4224992456      -19.4125870915
 H         3.3621516260       -0.7009575943      -20.4942849200
 H         2.6939145097        0.6456449642      -21.2428169409
 H         1.7659714085       -0.0234885805      -19.8747098475
 H         3.7328887456        3.0472397473      -18.3945513449
 H         2.1654660894        2.3373733286      -18.3646931531
 H         2.9518989234        3.0991555242      -19.8649891083
 H         3.0698047714        0.9649778528      -12.7606564554
 H         2.2893721490        2.5010742176      -12.7600201929
 H         3.7961969141        2.3163168250      -11.8140560225
 H         4.4940177452        4.3732545815      -13.3722148546
 H         3.0089706160        4.2304126187      -14.5244779140
 H         4.5753579606        4.2390044496      -14.9751320521
 H        10.8003409537        0.9332925621      -10.9430801912
 H        11.8730454543        0.5037307289      -12.2075109991
 H        10.6978624828       -0.6726533479      -11.6642676453
 H         9.6729918982        2.8134758914      -14.1010711252
 H        11.1838029973        2.6342457969      -12.9956496018
 H         9.6242052984        3.2445847578      -12.5166817676
 H         8.1354988914       -5.2753634123      -13.2418110162
 H         7.9316682722       -3.5925186126      -12.8393520588
 H         9.3206872531       -4.1692194404      -13.7322557051
 H         7.1349890594       -5.7939709705      -15.9416759341
 H         8.7823507989       -5.2021803552      -15.8261491617
 H         7.5132604377       -4.3413432965      -16.9452400120
 H         0.8457901455       -5.4521721458      -13.1101556847
 H         1.4109181776       -6.1644928406      -14.6050314646
 H        -0.3272944757       -5.9120155324      -14.3130327703
 H        -0.2420236224       -2.8823557591      -16.1790160433
 H        -1.3430137816       -4.1808017657      -15.4522570080
 H        -0.1521239821       -4.6461103259      -16.6454651313
 H        -2.2937239315        0.2086290063      -13.1321114588
 H        -4.0394295211        0.0306060532      -12.3783965557
 H        -3.0788192932       -1.3881201747      -12.6241283032
 H        -1.2729676907        0.8355542633       -9.4627799652
 H        -2.2331997204        1.7262977567      -10.5736562185
 H        -0.6959843338        1.0611134869      -11.2063085615
 H        -7.8335964677       -1.1084925561       -6.6307388633
 H        -6.8533633459        0.4879208938       -6.8134449601
 H        -7.9346593273        0.2574187806       -5.4761363074
 H        -5.9004921482        0.6396211317       -3.8183388018
 H        -5.0473607406        1.1176206900       -5.3021032120
 H        -4.3134823770       -0.1488921192       -4.1229564268
 H        -9.8379505277       -3.7612396032        1.6298772921
 H        -9.5408186471       -1.9905361914        0.9400847283
 H        -8.2404607667       -3.0815244854        1.4499766155
 H        -8.5660839591       -5.6286334836        0.4986900564
 H        -7.1054419094       -4.6468951942       -0.1262071492
 H        -8.2540021913       -5.4360271401       -1.2585615383
 H       -14.6885268886        0.9546331187       -0.9755938555
 H       -14.0146429969        0.3253135099       -2.4756604534
 H       -13.0242767350        0.1813464280       -1.2683427208
 H       -13.6858347024       -1.4092752906        1.1090548025
 H       -14.9603812641       -2.6220341714        0.6379580441
 H       -15.3725380657       -0.8612680514        0.8457151608
 H       -16.8699889021       -5.5203258125       -6.9649681365
 H       -16.5127518542       -5.4614018799       -5.3233338123
 H       -15.6328261942       -4.3971387500       -6.4335268532
 H       -19.4966629299       -3.2528922975       -7.2733669900
 H       -18.0994051662       -3.9618307871       -8.0990664001
 H       -18.0248521943       -2.2398305719       -7.4555509669
 H       -22.0429908801       -7.2046509844       -2.3190108363
 H       -23.2405475758       -5.9654093105       -2.8174371698
 H       -23.2703884228       -6.8338186829       -1.1843298987
 H       -23.0459477336       -5.0445679975        0.2076706352
 H       -23.5320394925       -4.0917573898       -1.0491145198
 H       -22.1305363499       -3.6383508143       -0.0153098105
 Na      -18.3268985594       -3.5666399405       -1.9152227838
 Na        7.4766130320        0.6468273529      -16.6560702212
