232

 C       -20.5046515313       -7.3645640962        0.1616397105
 C       -20.0894816150       -6.0478036789       -0.6638784509
 O       -18.9763199090       -5.6602576306       -0.7520487931
 C       -21.3512131267       -5.3078358658       -1.4011346228
 C       -20.9181666363       -4.3730395549       -2.6082682347
 O       -20.4951874459       -3.2663105539       -2.4280099612
 C       -21.0531060527       -5.0286511845       -3.9580077312
 C       -20.3265215662       -4.3209035876       -5.0632193449
 C       -18.8010055394       -4.2013771419       -4.8307274320
 O       -18.3472990200       -4.5726390600       -3.7443652808
 C       -17.7825774422       -3.5882686370       -5.8849396518
 C       -17.1740009264       -2.3551076916       -5.1651616712
 O       -17.5872359528       -1.2571110896       -5.3780116909
 C       -16.1888062571       -2.5389343675       -4.0243692969
 C       -16.3062437140       -1.2947458539       -3.1186402648
 C       -15.7865813589       -1.6405040209       -1.7617948480
 O       -16.4576159938       -2.3469834274       -1.0192619195
 C       -14.2754675885       -1.2756230183       -1.2563795160
 C       -13.3697050898       -2.3774533660       -2.0428646346
 O       -13.1953656302       -2.2710599596       -3.2390718968
 C       -12.9085832465       -3.4797903897       -1.1903420017
 C       -11.5431435395       -2.9429458617       -0.4519427748
 C       -10.3518736276       -3.7615460185       -1.0479474404
 O       -10.4907266009       -4.4983360831       -1.9918855552
 C        -8.9436556851       -3.6387982810       -0.4748697960
 C        -8.2595578632       -2.4831677224       -1.2928719790
 O        -8.7222723814       -1.3500643958       -1.0808422431
 C        -7.1554721164       -2.7702371255       -2.3342510647
 C        -6.7368829304       -1.6104335318       -3.2463775935
 C        -6.6278808158       -1.8497647439       -4.7474172372
 O        -6.9548061389       -2.9069620341       -5.2134587465
 C        -6.2395309247       -0.6800269685       -5.7041478677
 C        -5.2065813726       -1.2176402263       -6.8336102745
 O        -4.5066010267       -2.1773507537       -6.5914922999
 C        -5.0850681725       -0.4213238099       -8.1811070393
 C        -4.0465607417       -1.1255442002       -9.1436487604
 C        -3.9829189456       -0.4695516978      -10.4773626581
 O        -4.9518741789        0.0622292281      -11.0121259832
 C        -2.6688265113       -0.4667937960      -11.3078969473
 C        -1.6223642171       -1.6662183554      -10.9953284300
 O        -1.8631079393       -2.3922128716      -10.0858925454
 C        -0.3843733890       -1.8240284673      -11.9316128884
 C        -0.5577027008       -2.9169468365      -13.0164319947
 C         0.7212891322       -3.0537574741      -13.8300077009
 O         1.6115125723       -2.2007688245      -13.5979209939
 C         0.9746464874       -4.2181440483      -14.9003583265
 C         2.4485559273       -4.0692151269      -15.3725165052
 O         2.7110384360       -3.5149704646      -16.4472608172
 C         3.6257392270       -4.6380683772      -14.5072580306
 C         4.8726993238       -4.5654993349      -15.2352533159
 C         5.9526814815       -3.9638371976      -14.1927565376
 O         5.7391594065       -3.4327350192      -13.1499749147
 C         7.5210669440       -4.0337677351      -14.7181311151
 C         7.8696488647       -2.5728142782      -15.3104691275
 O         7.0464381547       -1.8314326143      -15.8737736634
 C         9.2324829750       -2.0331247973      -15.1937150669
 C         9.7423211605       -1.2344094709      -14.0855506112
 C         9.6413294180        0.2772267405      -14.1665999660
 O         9.4400022699        0.9335758712      -15.1694277239
 C         9.8336034372        0.9902752871      -12.8822553663
 C         8.5141613444        0.9259722778      -12.0762569545
 O         8.4651171977        0.1905342749      -11.1007589084
 C         7.3969732822        1.8347204447      -12.5883948653
 C         6.1504350156        0.9049382852      -13.0137299550
 C         5.4179712514        1.6639161079      -14.1420443269
 O         5.7395033795        1.6424476857      -15.3204906400
 C         4.0644853535        2.3241906074      -13.8651535064
 C         3.0026098350        1.8016003592      -15.0064277184
 O         2.2337566429        2.5193521548      -15.4661285713
 C         2.8761831285        0.2479114523      -15.4218779989
 C         2.6768707354        0.2400254438      -16.9522233942
 C         3.8947769700        0.6030861192      -17.7650318816
 O         5.0355078910        0.4232764889      -17.5062714011
 C         3.3827468826        1.2123026677      -19.2527452909
 C         4.5803004017        1.0576683708      -20.1492767669
 O         4.7646801261       -0.0066009705      -20.7097407722
 C         5.4865680392        2.2128460872      -20.3986708424
 C         6.9368325139        1.8299385549      -20.8130222012
 C         7.8881240453        1.4702462674      -19.6762169819
 O         7.4510123321        1.7082822904      -18.5872532530
 C         9.3143171492        0.8012296127      -19.9246994161
 C         8.7568103126       -0.6432909737      -19.6454210264
 O         8.5039820010       -0.9239917391      -18.4911912018
 C         8.6503456721       -1.6313760854      -20.7018825997
 C         9.8645190073        1.1725861132      -21.3967977712
 C        10.4548178628        1.1704306141      -18.8755025828
 C         2.2414269771        0.1968458636      -19.8050469896
 C         2.8589573008        2.6539220898      -19.2263456718
 C         3.2626738256        1.8384238676      -12.5865479747
 C         4.2473914520        3.7864487310      -14.0421764518
 C        10.9089644961        0.2723129821      -11.9724328441
 C        10.4724468059        2.4598524176      -13.1505864025
 C         8.4000638239       -4.4007422660      -13.5207415652
 C         7.6981687392       -5.0447933842      -15.8791346741
 C         0.6613410576       -5.5873526247      -14.2267370974
 C        -0.1220782413       -3.8323020260      -16.0107734705
 C        -3.0980439573       -0.4751151339      -12.8564745225
 C        -1.8265166677        0.8158861156      -10.8594442882
 C        -7.5636926082       -0.1476065417       -6.3462150767
 C        -5.3838772625        0.5298665153       -5.0630208142
 C        -8.9962008067       -3.2702742627        1.0887489345
 C        -8.1184135959       -4.9023417074       -0.5767128354
 C       -13.9728513334        0.1829929881       -1.6855676575
 C       -14.1494959715       -1.4781169015        0.2881991301
 C       -16.7605957021       -4.5886606350       -6.1908947634
 C       -18.4494521883       -3.0796945339       -7.2423096794
 C       -22.3707039726       -6.3667524929       -1.8226134023
 C       -21.8978991097       -4.2729092315       -0.3725154001
 H       -21.4890337776       -7.3662937192        0.6387316087
 H       -19.8419594584       -7.4602652363        1.0336794830
 H       -20.4884802446       -8.2777986368       -0.3580306001
 H       -22.1317362626       -5.0653090860       -4.3149622205
 H       -20.6569116101       -6.0190706967       -3.8105672722
 H       -20.7663586588       -3.3678378196       -5.4569192918
 H       -20.4109492222       -4.9149532766       -6.0160926423
 H       -15.1589538604       -2.5859061945       -4.3862782446
 H       -16.3005704249       -3.5167218362       -3.4359613558
 H       -17.3596073657       -1.0684830039       -3.1758049843
 H       -15.7989293269       -0.5041585852       -3.6887448752
 H       -12.6499016626       -4.3278704828       -1.7491214106
 H       -13.7160308401       -3.6922594969       -0.4145247195
 H       -11.5764612204       -3.0806727239        0.6797013174
 H       -11.5413098592       -1.8563251733       -0.5693781944
 H        -7.4616136864       -3.6524813320       -2.9869103658
 H        -6.2950747985       -3.1381092682       -1.7440378541
 H        -5.8071857436       -1.2378932294       -2.8972111499
 H        -7.4034722584       -0.7746266212       -3.1453453351
 H        -4.7324226122        0.5886609228       -7.8444188466
 H        -5.9933793777       -0.0744279256       -8.7330268343
 H        -4.4203188958       -2.1187951782       -9.3499937748
 H        -3.1069044165       -1.1743853699       -8.7018216327
 H         0.4476550587       -2.1422498653      -11.3252305978
 H        -0.0719486321       -0.8078097273      -12.3262978283
 H        -1.4762985525       -2.9520380899      -13.6956818857
 H        -0.6360644282       -3.8655928180      -12.4670372434
 H         3.3551893676       -5.6555631882      -14.1388818606
 H         3.6478623783       -4.0950136431      -13.5397204135
 H         4.8737035634       -3.9954081735      -16.2017802095
 H         5.3096295793       -5.5733546072      -15.4436036460
 H         9.3362101710       -1.3627565958      -16.0395758638
 H         9.9030695843       -2.9176184111      -15.3531813677
 H        10.8418960017       -1.3682242970      -13.9999922720
 H         9.4228993235       -1.6696535135      -13.0609895719
 H         7.6830726822        2.4458072834      -13.4132191972
 H         7.0726409933        2.4837678538      -11.7755456993
 H         5.4656045468        0.8343106196      -12.1312168804
 H         6.6427574129        0.0173758034      -13.3828461069
 H         2.0725474441       -0.2596424760      -14.8717080159
 H         3.7551454632       -0.2591814011      -15.2214406616
 H         1.8366427957        0.8305781330      -17.3131053813
 H         2.4668571695       -0.7859466156      -17.2474450285
 H         5.4557168840        2.9407757729      -19.6346704537
 H         5.0591049031        2.7273706519      -21.2809570210
 H         7.3798421750        2.7447451119      -21.3245406253
 H         6.7647919514        1.0125925369      -21.5339963030
 H         9.6397127264       -1.9560897858      -20.8551869855
 H         8.3220997765       -1.2954964942      -21.7044752604
 H         8.2298448290       -2.5948745888      -20.4238682166
 H        10.9255488897        0.9711603285      -21.5463319069
 H         9.9478282511        2.2891578936      -21.3064128652
 H         9.2995153050        0.8280274305      -22.1470747762
 H        11.4046223144        0.6173268386      -18.9573879364
 H         9.9960535421        0.9425631331      -17.8764668875
 H        10.4902007540        2.2792858024      -18.8620883226
 H         2.6143828432       -0.7767827093      -20.0955566033
 H         1.7984395760        0.5833259568      -20.7682405862
 H         1.4312418241        0.1599955227      -19.1570226101
 H         3.5258329724        3.3819195154      -18.7229495484
 H         1.9072419913        2.6932613032      -18.7539972666
 H         2.6131882353        3.0139656346      -20.2255743547
 H         3.2673093067        0.7050555937      -12.4732758535
 H         2.2501889748        2.1912906404      -12.7463300839
 H         3.6709831271        2.3095576489      -11.7009740345
 H         4.6760778786        4.2930701502      -13.1732407566
 H         3.3036630119        4.3663777130      -14.0954977213
 H         4.8800086269        4.0379514284      -14.9120344591
 H        10.8940188081        1.0007246942      -11.1635106427
 H        11.8714925878        0.1810568412      -12.3871874007
 H        10.6073153166       -0.6958966619      -11.6770564914
 H         9.6928207149        3.1050015980      -13.4205781196
 H        11.1446033599        2.4292607183      -13.9971203224
 H        11.0871295119        2.8410288674      -12.2515217569
 H         8.1099309383       -5.2930525806      -12.9588237328
 H         8.4899387308       -3.5384486022      -12.8234374918
 H         9.4125669865       -4.5781851492      -13.8819176070
 H         7.2736164460       -5.9533049537      -15.5132102551
 H         8.7888865307       -5.1283110989      -16.1910559650
 H         7.1831356619       -4.5985232205      -16.7433410114
 H         1.3808253645       -5.7706219377      -13.3910340572
 H         0.6671874282       -6.4430690982      -14.8682243689
 H        -0.3636022930       -5.5338066701      -13.8323640157
 H         0.1283686204       -2.8547715406      -16.4474144987
 H        -1.1392247853       -3.8195294414      -15.6186130132
 H        -0.0991524097       -4.5483043963      -16.8643532561
 H        -2.1226483012       -0.5588551054      -13.4343617528
 H        -3.4265887092        0.5156160933      -13.0350740690
 H        -3.8540873371       -1.3012020585      -13.0795805687
 H        -1.3151429613        0.5409218203       -9.8888717008
 H        -2.4315690697        1.7127460283      -10.6989272449
 H        -0.9954564511        1.1629286360      -11.5216560230
 H        -8.0608233372       -1.0212929140       -6.7576153929
 H        -7.2607253843        0.5180376461       -7.1472814705
 H        -8.1725790534        0.3709681294       -5.5692449836
 H        -5.8659829520        0.7978764182       -4.0930279091
 H        -5.2912845897        1.3903684048       -5.7956242920
 H        -4.3177100556        0.2967457414       -4.9144192392
 H        -9.9071524291       -3.6961153694        1.6021330334
 H        -9.0080283145       -2.2209466172        1.1621498133
 H        -8.1007752919       -3.7355445392        1.5321774461
 H        -8.4491978630       -5.5196841824        0.2263393308
 H        -7.0785767981       -4.7327509750       -0.2395005839
 H        -8.2147371348       -5.4109189070       -1.5538263681
 H       -14.7947799316        0.8841528972       -1.5489716491
 H       -13.7008106192        0.2615592680       -2.7926609359
 H       -13.2799062410        0.7578970459       -1.0872787451
 H       -13.1294292142       -1.3945205226        0.7135069310
 H       -14.7992130169       -2.3465697063        0.5708465792
 H       -14.5555656797       -0.5183485786        0.7271417555
 H       -17.3414210362       -5.5292670520       -6.4614456388
 H       -16.0496497282       -4.6807801338       -5.4220377500
 H       -16.2035194477       -4.3284843375       -7.0608715659
 H       -18.3660944902       -1.9571322953       -7.2382843497
 H       -19.4566733164       -3.3627447690       -7.0882728297
 H       -17.9290666453       -3.5792724493       -7.9830032220
 H       -21.7931231024       -7.2220366785       -2.3691415563
 H       -23.0498736569       -5.9292907264       -2.5356799246
 H       -22.9171236059       -6.7327545065       -0.9790629827
 H       -21.8716388920       -4.6921246170        0.6489914910
 H       -22.8985998544       -3.8532086923       -0.6458948543
 H       -21.2341621106       -3.4548211871       -0.2249743735
 Na      -18.3649421124       -3.5479603511       -1.5403375216
 Na        7.4505896971        0.3015106825      -16.5948601286
