232

 C       -20.2327706751       -7.4039183384       -0.1078195072
 C       -20.0356570938       -6.0714584459       -0.7275480079
 O       -18.9074441264       -5.5655773902       -0.7477667314
 C       -21.3012907393       -5.2174066696       -1.3288595823
 C       -20.8334301378       -4.4400126952       -2.5252205597
 O       -20.4323135797       -3.2839488935       -2.3977888218
 C       -20.9073756467       -5.1101275112       -3.8862449783
 C       -20.2794268270       -4.3540100924       -5.0906551426
 C       -18.7653808116       -4.2143536393       -4.8559867743
 O       -18.2678086070       -4.6203905475       -3.8191807257
 C       -17.8356713778       -3.4937536187       -5.9228540789
 C       -17.2885880137       -2.3053685861       -5.1800622896
 O       -17.8382101140       -1.2153137215       -5.3912511158
 C       -16.2343866622       -2.4525171614       -4.0856198836
 C       -16.3360798941       -1.2282603722       -3.0029800825
 C       -15.7944574811       -1.6491996010       -1.6369025122
 O       -16.4095734834       -2.3720093097       -0.8337748567
 C       -14.3406130789       -1.1847048374       -1.2459775154
 C       -13.3842149955       -2.3116757944       -1.9748525628
 O       -13.3261107222       -2.1517659987       -3.1580937403
 C       -12.6378102970       -3.4807915379       -1.1391630528
 C       -11.3288233945       -2.9912791323       -0.6697820011
 C       -10.2154597411       -3.8907426459       -1.1210407195
 O       -10.3617595146       -4.7922942920       -1.9343457556
 C        -8.7656447136       -3.6329067668       -0.4994824264
 C        -8.1860675775       -2.4136012386       -1.3886647674
 O        -8.4668143204       -1.3143039458       -1.0615749202
 C        -7.2067915571       -2.7193565662       -2.5717408562
 C        -6.8314976129       -1.3945411197       -3.3119740516
 C        -6.6159618044       -1.7037023358       -4.7319884809
 O        -6.9069710748       -2.8364359615       -5.1307313124
 C        -6.2573580282       -0.4989311983       -5.7180101294
 C        -5.3337894865       -1.1421388445       -6.9446934824
 O        -4.6249103254       -2.0885123540       -6.7164998325
 C        -5.2736585449       -0.4002550464       -8.3516582912
 C        -4.1523212678       -0.8706096067       -9.1888552324
 C        -4.1737670450       -0.4612543209      -10.6958073474
 O        -5.1644636439       -0.0259291762      -11.2454262695
 C        -2.8258576751       -0.4789630506      -11.4541114705
 C        -1.8825139699       -1.7178052182      -11.0970330531
 O        -2.0858158312       -2.5129342787      -10.1566834246
 C        -0.5339615846       -1.8527890128      -11.9800075630
 C        -0.4815842704       -3.1051123094      -12.9350154612
 C         0.8010026572       -3.0785384517      -13.7258806450
 O         1.5943036655       -2.2285374806      -13.5698986361
 C         0.9633602225       -4.2211565190      -14.8326667662
 C         2.4513010447       -4.0598368575      -15.2065407229
 O         2.7305243546       -3.4208559963      -16.2015668979
 C         3.4468077581       -4.6499034657      -14.2752917527
 C         4.8618852373       -4.6301115265      -14.9877673034
 C         6.0478464429       -3.9821964347      -14.1214495767
 O         5.9861764693       -3.3855264258      -13.0474499891
 C         7.5654088351       -4.0481716821      -14.7204707297
 C         7.8729950983       -2.6199844935      -15.3198526586
 O         7.0359284824       -1.8588621050      -15.7263214862
 C         9.3221430175       -2.1068771079      -15.4918807024
 C         9.6704823528       -1.3145791182      -14.1191047545
 C         9.6659912400        0.2459019492      -14.1706127681
 O         8.9405851486        0.8720993368      -14.9376293614
 C        10.0918666790        1.0629358795      -12.9126952568
 C         8.6525949073        1.0083156307      -12.1349145869
 O         8.3725517906        0.2874585156      -11.2357488398
 C         7.5187705745        1.9331668637      -12.5617873950
 C         6.3975522962        0.9962112403      -12.8832250099
 C         5.5261343553        1.5677054303      -14.0518837422
 O         5.9516848321        1.6331503608      -15.1954267503
 C         4.1006291095        2.0949600193      -13.8161370546
 C         2.9952508315        1.7551640160      -14.9832478872
 O         2.2334937001        2.6381953801      -15.5063884692
 C         2.9826770407        0.3805346250      -15.4431630812
 C         2.4083983759        0.0858335637      -16.8023844693
 C         3.5107891261        0.4903742832      -17.9455662104
 O         4.7025743051        0.4094260380      -17.6601446789
 C         3.1653657150        1.1090809452      -19.3599559099
 C         4.5263526257        0.8818684156      -20.1580583015
 O         4.8895902024       -0.1513096393      -20.6669351698
 C         5.4993080000        2.0697852730      -20.2338218172
 C         6.9397668073        1.6315691819      -20.6867182451
 C         7.9074532135        1.4651596161      -19.5503425117
 O         7.6623678043        1.9202506841      -18.4383846898
 C         9.2550439830        0.7001399591      -19.7828456098
 C         8.8003876131       -0.7092684056      -19.7729303631
 O         8.4069972201       -1.1867887636      -18.7160564474
 C         9.0464881694       -1.7438132061      -20.8979359658
 C         9.9384381580        1.2349137285      -21.1911159871
 C        10.1964613112        1.1532376030      -18.5856286587
 C         1.9847730783        0.3403133917      -20.0326318957
 C         2.7828963845        2.5319094708      -19.0264795909
 C         3.5681016446        1.8402640212      -12.4271707425
 C         4.1370419315        3.7027116883      -13.8267618343
 C        11.2339868382        0.3418605595      -12.0242587608
 C        10.6098005281        2.5335466115      -13.1113058126
 C         8.5340247507       -4.4833676910      -13.5300986401
 C         7.7053285689       -5.0144566041      -15.9719165205
 C         0.5157895710       -5.7098848395      -14.3503159490
 C        -0.0026798000       -3.7750955591      -16.0133975118
 C        -2.9906098946       -0.3204532371      -13.0223868241
 C        -1.9502690323        0.7715889515      -11.0334733319
 C        -7.5891551983       -0.0690872994       -6.3607159652
 C        -5.6152513047        0.7097352062       -5.0175144877
 C        -8.7413282639       -3.1173596444        0.9060200242
 C        -8.0478099825       -4.9622102939       -0.6370387810
 C       -13.7975977145        0.1529379780       -1.8673142090
 C       -14.2510928531       -1.0792434169        0.3083389323
 C       -16.7262317039       -4.6349789820       -6.1865069978
 C       -18.5802925685       -3.1188113199       -7.2424493425
 C       -22.4903069150       -6.1570924113       -1.7286032562
 C       -21.8421290876       -4.4077039602       -0.0852037269
 H       -21.2365574403       -7.5989499519        0.2875520532
 H       -19.6005453149       -7.6746266093        0.7045750367
 H       -20.0816190069       -8.1867803228       -0.9379527998
 H       -21.9045878763       -5.2529716807       -4.2224942820
 H       -20.4306765942       -6.0963417150       -3.6385144221
 H       -20.7182445236       -3.3897038185       -5.2120615467
 H       -20.4756971263       -4.7653932591       -6.0525994090
 H       -15.2141147652       -2.4272933347       -4.4778006933
 H       -16.2662947598       -3.4254434737       -3.6392208179
 H       -17.3941242110       -0.8990371307       -3.0903615568
 H       -15.6771710392       -0.5239708007       -3.4410499156
 H       -12.3729480405       -4.3238979054       -1.8668323879
 H       -13.1923985043       -3.8420603158       -0.3291369158
 H       -11.2804275329       -2.8174376354        0.3665029128
 H       -11.2643644496       -1.9668006770       -1.0547910127
 H        -7.6608747134       -3.4389950171       -3.2641679957
 H        -6.3000091313       -3.2537256914       -2.1924244108
 H        -5.9488278257       -0.8841544836       -2.8420189254
 H        -7.6738670667       -0.6707983714       -3.2076810846
 H        -5.2066193754        0.6529570940       -8.2330891529
 H        -6.2524714653       -0.5541434434       -8.7893816364
 H        -4.0349822085       -1.9944849525       -9.1091547628
 H        -3.2152915701       -0.4620215897       -8.6380713305
 H         0.3018098756       -1.9355476299      -11.2407383003
 H        -0.4091013613       -0.9150242969      -12.5185309171
 H        -1.3141177682       -3.1142688668      -13.6411018738
 H        -0.6995375199       -4.0447102559      -12.3602408208
 H         3.0040993438       -5.5907486762      -13.9985196896
 H         3.3714930973       -4.0956971425      -13.3215175296
 H         4.7146026187       -3.8624937801      -15.7881165002
 H         5.2613035880       -5.5822941941      -15.3598657837
 H         9.2329299601       -1.4142135710      -16.3505188114
 H        10.0908503793       -2.8451102975      -15.7129433130
 H        10.6151313659       -1.6286135026      -13.7042530568
 H         9.0166607771       -1.6298996917      -13.3812702577
 H         7.8407603859        2.5208550636      -13.5000191558
 H         7.2739258919        2.6366696809      -11.7323281334
 H         5.8409953413        0.9936200968      -11.9699031504
 H         7.0106446132        0.1050550150      -13.2066836558
 H         2.5172679198       -0.2327461747      -14.6304736314
 H         4.0595015013       -0.0333579749      -15.3481267792
 H         1.4412185921        0.6000314875      -16.9787691024
 H         2.1949852559       -1.0162078346      -16.8008314420
 H         5.5558827317        2.6403355884      -19.2447640168
 H         5.0795020370        2.8235861968      -20.9127828666
 H         7.3092414080        2.4451559873      -21.2739443119
 H         6.8440962422        0.6974745783      -21.2454657788
 H         9.9330477342       -2.3916064083      -20.6101022631
 H         9.2169442813       -1.3786684919      -21.8624892824
 H         8.3880395457       -2.5510930725      -20.9182069361
 H        10.9936695078        0.9877451127      -21.3722811410
 H         9.7757718896        2.3208167145      -21.2345299442
 H         9.3630632101        0.6452597605      -21.9709964825
 H        11.1973150381        0.6930450306      -18.6036294859
 H         9.7802042782        0.7936562383      -17.6476455695
 H        10.2215782736        2.2398625672      -18.6392410148
 H         2.3375511556       -0.5045916059      -20.6510035265
 H         1.3607539086        0.9753781545      -20.6512877225
 H         1.2768015730       -0.1032389778      -19.2558352748
 H         3.6421075882        3.0327386209      -18.6111580173
 H         1.9936410031        2.6242484338      -18.2024410248
 H         2.2067797975        3.0643965785      -19.8057980377
 H         3.5424543704        0.8057899088      -12.2821931130
 H         2.5469372027        2.1989923033      -12.3804422926
 H         4.2395006917        2.2421313223      -11.6786575217
 H         3.6724361898        4.2658007908      -13.0174275641
 H         3.4465448794        4.1240546883      -14.5312632615
 H         5.1356429422        4.0379120830      -14.0312489532
 H        11.5150831423        0.8565651221      -11.1251182901
 H        12.0745002936        0.1483664915      -12.7106859213
 H        10.7559667877       -0.6654908232      -11.7231963037
 H         9.7679087765        3.0416208833      -13.6836758533
 H        11.4727435480        2.7136584517      -13.7741012907
 H        10.7907072679        2.8807873835      -12.1389139788
 H         8.4494606390       -5.5732416769      -13.4170778673
 H         8.2123130292       -4.1116001959      -12.5799433398
 H         9.6108780089       -4.1561545499      -13.6766734202
 H         7.4872745268       -6.0575193747      -15.6551523063
 H         8.7068276440       -4.9341074462      -16.2542132733
 H         7.1758251689       -4.7019042027      -16.8314567120
 H         0.6525094987       -5.9046909580      -13.3357070686
 H         1.1897463288       -6.4369759828      -14.8279655460
 H        -0.4676702391       -6.0349662314      -14.6513189864
 H        -0.2342178082       -2.6733845516      -15.9927809955
 H        -0.9771474659       -4.3503217351      -16.0112051822
 H         0.5158049134       -3.8424879649      -16.9817508542
 H        -2.1085236141       -0.0459530977      -13.5548161353
 H        -3.7430143431        0.4909276899      -13.1417906738
 H        -3.3127307435       -1.2632604809      -13.3182054676
 H        -1.6386274799        0.8810492139      -10.0170803697
 H        -2.4603622227        1.6593975667      -11.3708575694
 H        -1.0112909438        0.7663341149      -11.5490099440
 H        -7.9209487250       -0.9747404199       -6.9061247078
 H        -7.3828381874        0.7033717557       -7.1078386724
 H        -8.2684669023        0.2769525714       -5.5832229834
 H        -6.1642273432        1.1003449627       -4.1684435703
 H        -5.4073769054        1.4548810083       -5.7594447183
 H        -4.5945665964        0.3834588675       -4.7340393726
 H        -9.4644773796       -3.6895530343        1.4390078423
 H        -8.9519550002       -1.9954950689        0.9989513159
 H        -7.7842819726       -3.4353275263        1.2588455641
 H        -8.5392847330       -5.7971143272       -0.0388527983
 H        -7.0626908659       -4.8480127376       -0.2228658945
 H        -8.0114985742       -5.2587017170       -1.6682477181
 H       -14.1671729969        1.0370994424       -1.3363375769
 H       -14.0608697177        0.3371811893       -2.8390533666
 H       -12.7706379689        0.3204801431       -1.6367223073
 H       -13.2317970801       -0.8643310640        0.5552187518
 H       -14.6069123832       -1.9412927071        0.7557357370
 H       -14.9399523417       -0.3388516270        0.6236032050
 H       -16.8723535949       -5.1349175940       -7.0920274901
 H       -16.6631832974       -5.2669899885       -5.2872630845
 H       -15.7461029636       -4.1525460743       -6.2431054417
 H       -17.8085701511       -2.4761840036       -7.6566651772
 H       -19.5228888202       -2.6644425169       -6.9833864095
 H       -18.6075956351       -4.0815934632       -7.7529580843
 H       -22.1437751542       -6.8893378856       -2.3188959595
 H       -23.2597461718       -5.6471888101       -2.2969933510
 H       -22.8926291216       -6.5657773571       -0.8132778757
 H       -22.1292652003       -5.1154293904        0.6622787901
 H       -22.5956721141       -3.7463513036       -0.3997027873
 H       -21.1479698206       -3.7185249723        0.4298344537
 Na      -18.2719108628       -3.5646388832       -1.6772701031
 Na        7.1535364722        0.2428880930      -16.6490548445
