232

 C       -20.0653236160       -7.4869608138       -0.2107909846
 C       -19.9673857002       -6.0528102018       -0.7750412667
 O       -18.9480188183       -5.4490925972       -0.7261003048
 C       -21.3215033069       -5.3522901601       -1.2410713696
 C       -20.8761103509       -4.4294944369       -2.5290078447
 O       -20.3955968928       -3.3502551759       -2.4237005776
 C       -20.9394905233       -5.1307919406       -3.9020775521
 C       -20.3079382739       -4.2302141649       -4.9386383549
 C       -18.7512967801       -4.2386242080       -4.8365518177
 O       -18.2106714701       -4.6826706720       -3.7758515950
 C       -17.8449129866       -3.6362191660       -5.9372755740
 C       -17.3889104291       -2.1957952059       -5.1347308470
 O       -17.9592309593       -1.2223640057       -5.4827909150
 C       -16.2435521772       -2.3322906006       -4.1014219138
 C       -16.3574670473       -1.1676454623       -2.9550405234
 C       -15.6954753062       -1.6279820008       -1.6302895841
 O       -16.4111036849       -2.3531581154       -0.9909537704
 C       -14.3080038546       -1.1843245159       -1.1477833962
 C       -13.4805873372       -2.2369999367       -1.8660383783
 O       -13.3669774487       -2.2111285822       -3.0762388064
 C       -12.6045581902       -3.3110012350       -1.2371744620
 C       -11.2037318395       -2.8863092979       -0.7366390513
 C       -10.0890237123       -3.9290070509       -1.1529060293
 O       -10.3662327629       -4.8699272774       -1.8485704143
 C        -8.6115108493       -3.6572114105       -0.6265689381
 C        -8.1496420065       -2.4263232309       -1.4126184624
 O        -8.4276445751       -1.2888991572       -1.0394490759
 C        -7.2694685220       -2.6492717324       -2.5896054409
 C        -6.8414827573       -1.3877543922       -3.3160158094
 C        -6.6325652961       -1.6899522800       -4.8183483262
 O        -6.8270793622       -2.7847088274       -5.2846847384
 C        -6.2753630694       -0.4617021987       -5.8480510482
 C        -5.3735507428       -0.9910216335       -7.0000524544
 O        -4.6960508301       -1.9653346728       -6.7911559001
 C        -5.3914111563       -0.4187415227       -8.4537270384
 C        -4.0912513960       -0.7476607316       -9.2157935756
 C        -4.1628510560       -0.4351597031      -10.7112422953
 O        -5.2464823761       -0.1555488312      -11.2143471586
 C        -2.8094432967       -0.4924777818      -11.5386511953
 C        -1.9377754597       -1.6781501419      -11.1861857628
 O        -2.3016537020       -2.4813041461      -10.3768428968
 C        -0.6413328848       -1.8656868027      -11.9523252339
 C        -0.6008116593       -3.1126268011      -12.7636658081
 C         0.7005658316       -3.1581823984      -13.6457984162
 O         1.5590420444       -2.2686388079      -13.5034504722
 C         0.9562458248       -4.2091148635      -14.7932557464
 C         2.4573598662       -4.1244413341      -15.2001283244
 O         2.7154376950       -3.3759481521      -16.1580137338
 C         3.6575467079       -4.5136243049      -14.2074553070
 C         4.9728719442       -4.6119944230      -14.8948068749
 C         6.1381104053       -4.0374041346      -14.0946767655
 O         5.9680561632       -3.4088846188      -13.0821952878
 C         7.6192750229       -4.0875342168      -14.7698693539
 C         7.8283859720       -2.5652070255      -15.2718142420
 O         6.8624961495       -1.9120153432      -15.6253976424
 C         9.2617464524       -2.0302715602      -15.3478803913
 C         9.7679477033       -1.3264753733      -14.0721552689
 C         9.5505874476        0.1756515089      -14.1244928557
 O         8.7881854501        0.7819785714      -14.9026959327
 C        10.0768730667        0.9789309107      -12.9370322350
 C         8.7909487707        1.1143174732      -12.0840678949
 O         8.5889905200        0.2963126303      -11.2379156498
 C         7.5674881397        1.9372139458      -12.6976829502
 C         6.3075239264        0.9899791185      -12.9831761382
 C         5.5201673154        1.6467017750      -14.1050643443
 O         6.0436917277        1.5398795961      -15.1992203974
 C         4.1400338412        2.2780277133      -13.7697897428
 C         3.1962578326        1.7588257626      -14.9469535831
 O         2.4387236324        2.5658095355      -15.3190110778
 C         3.0717090287        0.1998717786      -15.4196897129
 C         2.4405038289        0.0646587714      -16.8807914641
 C         3.4355182235        0.3554964136      -17.9003871853
 O         4.6126852026        0.3521077930      -17.6435911341
 C         3.1155374418        0.9619367081      -19.2786635919
 C         4.4625539726        0.8314282589      -20.0414456547
 O         4.7000636642       -0.1883560144      -20.6543933846
 C         5.4483095733        2.0573667519      -20.1164467829
 C         6.8715856285        1.6257968035      -20.6302753067
 C         7.8483504534        1.5245367602      -19.5082413590
 O         7.6273329791        2.0063278031      -18.4076016582
 C         9.1949732697        0.7259445760      -19.7003039095
 C         8.9259380459       -0.8810762046      -19.6176478607
 O         8.2798772842       -1.3410947634      -18.6997497504
 C         9.3434281379       -1.6237142464      -20.9185656834
 C         9.8762538354        1.1574546910      -21.0454167864
 C        10.1766685412        1.0530403209      -18.5128444364
 C         1.9385799570        0.3203805378      -20.2156759555
 C         2.8581930363        2.4972299658      -18.9796110000
 C         3.4614942942        1.7657869209      -12.3884366959
 C         4.0897080148        3.8806758981      -13.7079236746
 C        11.2682172991        0.3157919248      -12.1176947940
 C        10.5733533820        2.4447105247      -13.2175254451
 C         8.5876529868       -4.4184606406      -13.6893761651
 C         7.7124099628       -4.9948038994      -15.9571893540
 C         0.5212937036       -5.6201773777      -14.3712696488
 C         0.1497724596       -3.7705694379      -16.0965392566
 C        -3.0610252646       -0.4385591027      -13.0667698512
 C        -2.0368744685        0.8250874704      -10.9579925020
 C        -7.7188522226        0.0099110798       -6.3495067422
 C        -5.6756617238        0.7137726414       -5.1061184667
 C        -8.7114751592       -3.1898608500        0.8597991327
 C        -7.7582367507       -4.9066340428       -0.6724665616
 C       -13.9074527690        0.0635528200       -1.9220416006
 C       -14.1666438659       -0.9830092922        0.3900210302
 C       -16.5784263445       -4.4816333837       -6.2818267736
 C       -18.5875968315       -3.2176923811       -7.2036530051
 C       -22.6643855497       -6.1175781722       -1.6036506937
 C       -21.7312080747       -4.4399619585       -0.0764706685
 H       -20.9211031081       -7.6539633318        0.4564392773
 H       -19.2445930338       -7.7432757372        0.4108131184
 H       -20.1360672286       -8.2752594683       -0.9724399092
 H       -21.9289996845       -5.3299545565       -4.3363509709
 H       -20.4078368778       -6.0415514341       -3.7540119495
 H       -20.7535972507       -3.2471972400       -5.0213102742
 H       -20.5099721264       -4.6473517198       -5.9590341566
 H       -15.3248310800       -2.3573083643       -4.5074926552
 H       -16.2828288650       -3.3571148115       -3.6241316673
 H       -17.4769923839       -1.2006810479       -2.7998961484
 H       -16.0438762928       -0.2505843263       -3.4584991385
 H       -12.4305678269       -4.0734145467       -1.9986398457
 H       -13.0133943547       -3.7498193485       -0.3024254399
 H       -11.3371959561       -2.8161288189        0.3347135995
 H       -10.9520203468       -1.8765425055       -0.9887540403
 H        -7.8115466624       -3.2860502514       -3.2049398321
 H        -6.4153067689       -3.2192428942       -2.2974010709
 H        -5.8844140943       -1.0526998880       -2.8613417982
 H        -7.5822252673       -0.5535641622       -3.0580991359
 H        -5.6088049724        0.6584189152       -8.4960428441
 H        -6.3066220925       -0.9446530851       -8.8432496669
 H        -3.9477600670       -1.8739762434       -9.1911607521
 H        -3.2506605432       -0.3840830163       -8.6091098055
 H         0.1539144667       -1.8922000817      -11.2234093611
 H        -0.5505546035       -0.9409383517      -12.5570908209
 H        -1.5399784310       -3.3092642816      -13.2215050722
 H        -0.5447618311       -3.8851117968      -12.0737612460
 H         3.4129668006       -5.4513889350      -13.7666213561
 H         3.5833278173       -3.8215572155      -13.3619518632
 H         4.9101371007       -3.9803151165      -15.8439664921
 H         5.2273331082       -5.6258760359      -15.0203417187
 H         9.3583129992       -1.4173530876      -16.1990394759
 H         9.9577884728       -2.9028984415      -15.4723528835
 H        10.8127330492       -1.5422568039      -13.9391559124
 H         9.3328112247       -1.7459283429      -13.1699795557
 H         7.9475436893        2.4568703877      -13.5995872237
 H         7.2779904747        2.6472072619      -11.9558848751
 H         5.8265841698        1.0263018726      -12.0177212298
 H         6.7931492568        0.1563988311      -13.3388339514
 H         2.5019349266       -0.4263782957      -14.6234129247
 H         4.0642435160       -0.3186204203      -15.3535695815
 H         1.5536823537        0.6595424895      -17.0728093671
 H         2.1437339905       -0.9815573675      -17.0703240560
 H         5.6020016537        2.4595243980      -19.0807501564
 H         5.0123032900        2.8936224009      -20.6465720546
 H         7.2112812852        2.4546882688      -21.2932885069
 H         6.7906331950        0.6462850043      -21.1376160379
 H        10.1471494155       -2.3730222210      -20.9675992710
 H         9.4679169950       -0.8743239025      -21.7440567396
 H         8.5710655469       -2.3194284101      -21.2576370513
 H        10.7324570384        0.4914174705      -21.2775146251
 H        10.1635096961        2.3051439745      -21.0680261219
 H         9.2095057846        0.9192979080      -21.7639975785
 H        11.0528951163        0.4864328010      -18.7291452879
 H         9.8388963335        0.4832826922      -17.6621159194
 H        10.4251986320        2.0945098426      -18.3319510443
 H         2.3714863274       -0.5905912876      -20.6394050207
 H         1.5900405389        1.0028432496      -21.0806029886
 H         1.0898870897       -0.0235303493      -19.7168860723
 H         3.6260222362        3.0153515098      -18.4062786751
 H         1.9304632029        2.6015898128      -18.3675837952
 H         2.4024557102        2.9551908068      -19.8461326160
 H         3.2755879620        0.7340568156      -12.6930989208
 H         2.5181714564        2.2137411786      -12.1678226060
 H         4.1146215519        1.6979024285      -11.5489888029
 H         3.4530354871        4.3012247678      -12.9732770075
 H         3.5307192797        4.4022253073      -14.4720668117
 H         5.1301745973        4.1982980894      -13.6483835418
 H        11.6603937726        1.0556552462      -11.3333253164
 H        12.0274350466        0.1057945252      -12.8729480099
 H        10.9231837577       -0.5912784192      -11.5209442980
 H        10.0945799987        2.7936154865      -14.0924442109
 H        11.6149077687        2.4604967635      -13.5602167537
 H        10.4832815515        3.0126580186      -12.2491927162
 H         8.5224373565       -5.4823652439      -13.5274116429
 H         8.1795262206       -4.0519614975      -12.7421689042
 H         9.6328612682       -4.0290911540      -13.7698490449
 H         7.7758422941       -6.0798581960      -15.6709483764
 H         8.6668880781       -4.6729181315      -16.5014938838
 H         6.9402965954       -4.8108910684      -16.6824857466
 H         0.6991726734       -5.9447059166      -13.3576790549
 H         1.1489262399       -6.2937166408      -14.9484217367
 H        -0.5186938759       -5.9256200172      -14.6424042331
 H        -0.0739935812       -2.7051900382      -16.1632268757
 H        -0.7474366394       -4.3143135221      -16.2598202539
 H         0.8220923468       -3.8667111878      -16.9182944199
 H        -2.1989887666        0.0145336061      -13.5840869141
 H        -3.8678462440        0.1760416203      -13.1886170863
 H        -3.1709135814       -1.4280992556      -13.4201572435
 H        -2.0715402855        0.9244443773       -9.8551921806
 H        -2.4400603380        1.6850580901      -11.3481057854
 H        -0.9780775566        0.8520119624      -11.0824720990
 H        -8.1369865468       -0.6231293794       -7.1047495115
 H        -7.5880520095        0.9541835613       -6.7428817559
 H        -8.2917230018        0.0977617070       -5.4064380238
 H        -6.3910911545        1.2475564780       -4.5508345825
 H        -5.2045143216        1.3906118649       -5.7892702990
 H        -4.8943192605        0.3189861103       -4.4828916658
 H        -9.0367611939       -4.0324811475        1.4733393511
 H        -9.3742975682       -2.3338672188        0.9472584970
 H        -7.7186944542       -2.9486125014        1.1131940645
 H        -8.2994761118       -5.6714900514       -0.0542062944
 H        -6.8283812882       -4.6663459779       -0.1724070082
 H        -7.5323877133       -5.3774957702       -1.6361094861
 H       -14.2225286982        1.0481783531       -1.5877295210
 H       -14.3023062830        0.0246124444       -2.9439929530
 H       -12.8785480097        0.1743458634       -1.8681157781
 H       -13.1413624064       -0.6103592957        0.5197026778
 H       -14.2857207957       -1.9061258345        0.9387166515
 H       -15.0425671422       -0.4097317234        0.7403563118
 H       -16.6409220630       -4.8687005549       -7.3776295859
 H       -16.4200775153       -5.2679088343       -5.5772196088
 H       -15.7058379239       -3.8244428570       -6.2852186573
 H       -17.6522399188       -3.1258025170       -7.8732396436
 H       -18.9544309337       -2.2359975514       -6.8636745443
 H       -19.3343329278       -3.9017340302       -7.4409298500
 H       -22.5790669832       -6.8015905722       -2.5125201264
 H       -23.2824606740       -5.3115651151       -1.9764945655
 H       -23.1269075246       -6.5505962687       -0.7552641064
 H       -22.1118750851       -5.0118153733        0.7926712415
 H       -22.3540027929       -3.6171980979       -0.4363809066
 H       -20.9131035124       -3.8458106423        0.2700628777
 Na      -18.1261794474       -3.5290551117       -1.6985068165
 Na        7.0055921122        0.2517917588      -16.7993446946
