232

 C       -20.0169431771       -7.5213674342       -0.7106264418
 C       -19.8549285153       -6.0642663800       -0.7698399115
 O       -18.7734996241       -5.5988653725       -0.5773156768
 C       -21.2284729742       -5.2302611469       -1.1235618790
 C       -20.8123885881       -4.3887653395       -2.4314370898
 O       -20.3187187158       -3.3103247226       -2.2138400005
 C       -20.9784962491       -5.0583908348       -3.8004690966
 C       -20.2086613314       -4.2402463597       -4.8451891946
 C       -18.5974653080       -4.2229215692       -4.7750876887
 O       -18.0439923043       -4.8779755224       -3.9432727835
 C       -17.7646456132       -3.4315468880       -5.8358912023
 C       -17.5444382328       -2.0832707159       -5.1095655944
 O       -18.1784957937       -1.0983422200       -5.3479174078
 C       -16.4096438076       -2.1071800671       -4.1245000838
 C       -16.5780242734       -1.0357478082       -2.9826919697
 C       -15.7349344608       -1.6033288157       -1.7642484117
 O       -16.2246160877       -2.4506267805       -1.0129805678
 C       -14.2642424032       -1.0827221406       -1.3906352006
 C       -13.2419306626       -2.2177408838       -2.1322145626
 O       -13.4038404742       -2.4279321175       -3.2961194996
 C       -12.4143357868       -3.1485953895       -1.1553169291
 C       -10.9678289198       -2.7172588478       -1.1167424343
 C        -9.8531777912       -3.8787387777       -1.0717247264
 O       -10.1889531126       -4.9899266212       -1.3929682674
 C        -8.4444853983       -3.5362573804       -0.6325436901
 C        -8.0194327361       -2.2470265094       -1.4759630621
 O        -8.3622917792       -1.1435615402       -1.1555520545
 C        -7.2883802667       -2.6433385483       -2.7709129987
 C        -6.9604733577       -1.3679181793       -3.5598924172
 C        -6.7880204116       -1.6386394950       -5.0222564071
 O        -6.9435416752       -2.7324266947       -5.5168275535
 C        -6.5697821568       -0.3394849315       -6.0231911740
 C        -5.5635796575       -0.8297831643       -7.1108973537
 O        -4.6034706226       -1.5067994394       -6.8566280010
 C        -5.6574464120       -0.3253476183       -8.5474208960
 C        -4.3043777600       -0.4025288283       -9.2217455883
 C        -4.3854004969       -0.4267982894      -10.7358136075
 O        -5.4242983691       -0.5572713997      -11.3658611685
 C        -3.0599480311       -0.3779726473      -11.5824240376
 C        -2.3328744874       -1.8152939696      -11.4333514423
 O        -2.8151655447       -2.7249744164      -10.8031057633
 C        -0.8472393815       -1.8472474479      -11.9944148409
 C        -0.4912139076       -3.1970594108      -12.7633799608
 C         0.8290678203       -3.0417908798      -13.4748155276
 O         1.6107896538       -2.1212959993      -13.2713514351
 C         1.0257096113       -4.0913864596      -14.6552728429
 C         2.5887893276       -3.9427841124      -15.0913429062
 O         2.8393474423       -3.4001224572      -16.2035929190
 C         3.6124785075       -4.3016717748      -14.0624196586
 C         5.0122270376       -4.7266563100      -14.7427533980
 C         6.1763432357       -4.0349680839      -13.9444566155
 O         6.0909656584       -3.5851888637      -12.8034517150
 C         7.5583970699       -4.0111783649      -14.7927771725
 C         7.8255487470       -2.5330063801      -15.3648014644
 O         6.8634149146       -1.8307137483      -15.4250107417
 C         9.3033193527       -2.1639275001      -15.7336218317
 C         9.8697965710       -1.4980077948      -14.4667671024
 C         9.5022523889       -0.0634694434      -14.3086737235
 O         8.8274013342        0.5623816356      -15.1326838174
 C        10.0831451399        0.8475118307      -13.0705965794
 C         8.8407528770        1.1487587382      -12.1593655319
 O         8.9254538895        0.7344493973      -11.0580788929
 C         7.4287319340        1.9983213747      -12.4893926975
 C         6.3933460440        1.0300859428      -12.9908016820
 C         5.5181154379        1.5911740856      -14.0532045009
 O         5.9660453730        1.6621929676      -15.1892119191
 C         4.1038839952        2.1016835662      -13.6547424764
 C         3.1064271860        1.7588465972      -14.9040427413
 O         2.5310260084        2.6430334959      -15.4896602857
 C         2.9575998160        0.2247616959      -15.3328860077
 C         2.4513855062       -0.1059713726      -16.7316535680
 C         3.5455170853        0.2065341074      -17.8693319946
 O         4.7203740770       -0.1003907230      -17.7270921661
 C         3.1544425562        0.8992857274      -19.1298192032
 C         4.3654288521        0.8567728645      -20.0439874177
 O         4.5328751825       -0.0916820453      -20.7720699708
 C         5.3943638569        2.0540419926      -20.0439980883
 C         6.8360509469        1.5502758323      -20.4067472122
 C         7.8080374646        1.4506322317      -19.2602664980
 O         7.5842809955        1.8187538475      -18.1267854451
 C         9.2402412565        0.6892451439      -19.4470897179
 C         8.8732456107       -0.7899528117      -19.4807365430
 O         7.9536798972       -1.2071402789      -18.7950836476
 C         9.5467375660       -1.8065113154      -20.3827260212
 C         9.8513297655        1.3402112215      -20.6721911372
 C        10.0305738423        0.8126314302      -18.1751356793
 C         1.8798489140        0.0033580255      -19.5734966837
 C         2.7253877698        2.3516214773      -18.9196913472
 C         3.4746455316        1.4744244321      -12.3654803354
 C         4.2247642535        3.5769206051      -13.4956327621
 C        11.3613569986        0.3089202131      -12.3430016742
 C        10.4463312150        2.2640722417      -13.7442780639
 C         8.5684901144       -4.4726882618      -13.7471401268
 C         7.6753937861       -4.8181427851      -16.0701315071
 C         0.8590981427       -5.5735791389      -14.3198248766
 C         0.1268985279       -3.6627475772      -15.8893160682
 C        -3.3822882102       -0.2942058659      -13.1285465073
 C        -2.2041635502        0.8382220113      -11.1496720767
 C        -7.8663757414        0.1995357620       -6.6082723057
 C        -5.7017114027        0.8373404779       -5.3996069897
 C        -8.2336410790       -3.3286759585        0.9403171765
 C        -7.5702380031       -4.8538355516       -0.9478930274
 C       -14.0418667800        0.3412201685       -1.9052961440
 C       -14.1599113487       -1.0962101090        0.2021375923
 C       -16.4536648058       -4.2499369412       -6.0832830213
 C       -18.4254032618       -3.1804672001       -7.1844703235
 C       -22.4195122631       -6.2046251421       -1.1920584296
 C       -21.6096272260       -4.2771664763        0.0220205104
 H       -20.2794466448       -7.8898413980        0.2989549978
 H       -19.0869605024       -7.9884637950       -0.8835499856
 H       -20.7000698217       -8.0194857035       -1.4727459301
 H       -22.0500299497       -4.9300341669       -3.9529083991
 H       -20.7313185031       -6.1612596712       -3.9033369259
 H       -20.5171220173       -3.2132375966       -4.8165553631
 H       -20.4836083165       -4.5576237241       -5.8290111807
 H       -15.4982072830       -1.9410540931       -4.6213680398
 H       -16.1618023036       -3.0624806790       -3.6136202947
 H       -17.6307562545       -1.0166982066       -2.6324602615
 H       -16.2753372285       -0.1139117161       -3.3511378782
 H       -12.2948642289       -4.1902391973       -1.5859205295
 H       -12.7935311693       -3.2260022513       -0.1731679198
 H       -10.8795127831       -2.1469893229       -0.2026205905
 H       -10.7281392136       -1.9701418296       -1.9116271307
 H        -8.0397658600       -3.2778276962       -3.3604567735
 H        -6.3503607707       -3.2978611700       -2.6547407593
 H        -6.0425071307       -0.9531011594       -3.1476641866
 H        -7.7181119962       -0.6271787418       -3.3798935184
 H        -5.9929612002        0.6639847358       -8.4467549216
 H        -6.3304138052       -0.9244724865       -9.1156044048
 H        -3.7546727142       -1.2314134670       -8.7504859732
 H        -3.5992957917        0.3869214491       -8.8306108534
 H        -0.1999106617       -1.7715482437      -11.0894080135
 H        -0.7823275966       -0.9681378416      -12.6233855864
 H        -1.3210023295       -3.2513241354      -13.5493766089
 H        -0.6624531888       -4.1551190108      -12.1511358907
 H         3.2412752125       -5.1095113311      -13.4072127176
 H         3.7413162084       -3.3776166456      -13.3984250843
 H         5.1179636027       -4.3053875736      -15.7659258099
 H         5.1601357427       -5.7943819470      -14.5433795599
 H         9.5109958262       -1.5548901325      -16.6397849571
 H         9.8712724940       -3.1016015714      -15.9006221270
 H        10.9928251516       -1.5403010905      -14.4610222855
 H         9.5822161873       -1.9414979187      -13.5475204441
 H         7.6735352953        2.7303944826      -13.3414767171
 H         7.0701665073        2.3660224412      -11.5154115819
 H         5.8557293346        0.7515232885      -12.0480821587
 H         6.9892350184        0.1819492336      -13.4970925656
 H         2.5809843925       -0.3918310407      -14.5516848741
 H         3.9824808071       -0.1752414916      -15.2283854862
 H         1.5489800284        0.4842867397      -16.9616366157
 H         2.2150445182       -1.1939240976      -16.7998953049
 H         5.4833285825        2.3646450615      -18.9579615001
 H         4.9531197412        2.8847566152      -20.5655641499
 H         7.2334234674        2.1975786500      -21.1455518412
 H         6.7120375253        0.5253075820      -20.7703487496
 H        10.6497536040       -1.8008163624      -20.4292571193
 H         9.2228897486       -1.6851978024      -21.3929079138
 H         9.3196342171       -2.7600285842      -20.0983489208
 H        10.9073905798        1.0775217047      -20.8305096479
 H         9.5795668863        2.4501778656      -20.4570685614
 H         9.3297347221        1.1486137755      -21.5272436693
 H        10.9820868192        0.2582628063      -18.2363263443
 H         9.5468905564        0.4586680642      -17.2492912802
 H        10.4635093512        1.8211553248      -18.2615316581
 H         2.0534512821       -1.0138131228      -19.2823406889
 H         1.5860416729        0.0882753991      -20.6554941874
 H         1.0183701709        0.1705875706      -18.9518497763
 H         3.0971065478        2.9218726519      -18.1220393354
 H         1.6208562470        2.3859950189      -18.7553050391
 H         2.7730579623        2.8979665400      -19.8580492015
 H         3.7641425138        0.4448913331      -12.2059381357
 H         2.3802703195        1.5146073515      -12.5467374239
 H         3.6448017056        2.0916302435      -11.4609606615
 H         3.3006951757        4.0112886431      -13.8370358479
 H         4.8565257009        4.1058078173      -14.1972030924
 H         4.5867537176        3.8082228139      -12.5065120865
 H        11.6921572499        1.0030041105      -11.6194311088
 H        12.0115940935        0.3488544797      -13.1282359855
 H        11.2434191361       -0.5739418532      -11.7201233901
 H        10.0054055341        2.4537075349      -14.7263328355
 H        11.5051893568        2.2188553717      -14.0077840575
 H        10.3127962272        2.9528886555      -12.9588404862
 H         8.1549560378       -5.3454397860      -13.2727162370
 H         8.5803119317       -3.7228516445      -12.9847773355
 H         9.6089564179       -4.5710080183      -14.1390482884
 H         7.3151926916       -5.8559120045      -15.9335656938
 H         8.7129239865       -4.9234767674      -16.3648829550
 H         7.0872248240       -4.3807144924      -16.7989176168
 H         1.6797467381       -6.0394821767      -13.8899778337
 H         0.6154844680       -6.1812594565      -15.1983232827
 H         0.0591656803       -5.7763939001      -13.5969229761
 H         0.5610942069       -2.8510807940      -16.5507691571
 H        -0.8270328030       -3.2519399623      -15.4929099982
 H        -0.0535236379       -4.5047133412      -16.5614691947
 H        -2.3426677909       -0.1697284245      -13.5828299539
 H        -4.0084911546        0.5909168000      -13.3293003235
 H        -3.8169912718       -1.2227742658      -13.5385538197
 H        -1.7043213936        0.8218917338      -10.1358007195
 H        -2.6816929023        1.8037707665      -11.1571576458
 H        -1.3241664509        0.9085425932      -11.8291349732
 H        -8.4045593110       -0.6602961643       -7.0840169297
 H        -7.6349199888        0.9480147496       -7.3469594880
 H        -8.4087731954        0.6277973303       -5.7272592461
 H        -6.1665944310        1.1936368917       -4.4526881810
 H        -5.8067722955        1.7484678475       -5.9958366179
 H        -4.6698121058        0.4142445539       -5.1655481816
 H        -8.5669869360       -4.2498607499        1.4252481037
 H        -8.9095657477       -2.4512515373        1.2505425773
 H        -7.2123759290       -3.0732269701        1.1966114344
 H        -7.8716976937       -5.7350047930       -0.3041218692
 H        -6.5467393111       -4.6281236986       -0.9670144085
 H        -7.7768479922       -5.2628454784       -1.9143544687
 H       -14.9966888270        0.8263586300       -2.2248525384
 H       -13.5691867745        0.3566443754       -2.8865337430
 H       -13.4591381361        0.9922424949       -1.2702281417
 H       -13.1660759853       -1.2934889557        0.5323736370
 H       -14.7371409620       -1.8638402649        0.5932978410
 H       -14.6746317785       -0.2355489653        0.5422290034
 H       -16.6797978156       -5.3265532963       -6.1415768348
 H       -15.8794548053       -4.2463908269       -5.2083010334
 H       -15.9557566826       -3.9184226572       -6.9639898950
 H       -17.5645646631       -3.4968510480       -7.8725342104
 H       -18.8668935186       -2.2169780285       -7.2785945639
 H       -19.1206374343       -3.9212282557       -7.1730549147
 H       -22.3230985322       -6.9030382223       -1.9976075847
 H       -23.3653723932       -5.6770640863       -1.2716529566
 H       -22.3993433888       -6.7120239017       -0.2535924410
 H       -21.7946697266       -4.8808871871        0.9093146989
 H       -22.5545603676       -3.7966666809       -0.1767466900
 H       -21.0034954082       -3.3967336116        0.1727049576
 Na      -18.1220093059       -3.6705731541       -1.7597710578
 Na        6.9367476044       -0.0350766673      -16.8655523073
