232

 C       -19.8943177375       -7.7944125785       -0.8343342077
 C       -19.6879370271       -6.2610820342       -0.7621536980
 O       -18.4766114540       -5.9392920559       -0.7003487243
 C       -20.8420544666       -5.1859265352       -1.0166365553
 C       -20.5516401480       -4.3829331820       -2.2611060316
 O       -19.9632108272       -3.2932369185       -2.1791168404
 C       -21.0314124480       -4.7905683713       -3.6676887330
 C       -20.2235178258       -4.0451052684       -4.8167217616
 C       -18.6813761945       -4.1283757981       -4.7905997700
 O       -18.0330776557       -4.6359785052       -3.8205147088
 C       -17.7933819182       -3.4119524309       -5.8767290395
 C       -17.4726554516       -2.0818559549       -5.0161032208
 O       -18.3699731510       -1.2552444647       -5.0190168823
 C       -16.1387903775       -2.0575933023       -4.2301039435
 C       -16.3830913212       -1.2151441527       -2.8951368882
 C       -15.5222264684       -1.6107911202       -1.7399254276
 O       -15.9554208936       -2.5409964931       -1.0784876892
 C       -14.1558534448       -1.0817941353       -1.4054407630
 C       -13.2050440859       -2.2408265772       -2.2302722259
 O       -13.2385137133       -2.1857871549       -3.4509374019
 C       -12.2349867617       -3.1476242854       -1.4357136324
 C       -10.8323247977       -2.8142352383       -1.6285422588
 C        -9.9414336959       -3.8063059185       -0.8484800879
 O       -10.3730041497       -4.7965345926       -0.2979402777
 C        -8.4096936070       -3.5073360869       -0.7190014443
 C        -8.0017155614       -2.2644010242       -1.6333096901
 O        -8.0903916838       -1.1325674225       -1.1355829868
 C        -7.2034480366       -2.5493843647       -3.0802094909
 C        -6.8122626095       -1.1897820281       -3.8463762702
 C        -7.1526183958       -1.2791336976       -5.4238184037
 O        -7.4695371426       -2.3465704575       -5.9229321927
 C        -6.8288862937        0.0241236318       -6.3430483721
 C        -5.5865563536       -0.4500095980       -7.3261180778
 O        -4.5293145852       -0.7588335114       -6.7841483051
 C        -5.7844033506       -0.4732151512       -8.8572191623
 C        -4.4628719546       -0.3992697582       -9.5898385183
 C        -4.6684386404       -0.4911248593      -11.0443005342
 O        -5.7610628107       -0.8078572203      -11.4381932413
 C        -3.4677464766       -0.2871355012      -11.9170419644
 C        -2.6549758399       -1.6470150380      -11.9163191569
 O        -3.3149317769       -2.6657018187      -11.8366925340
 C        -1.1197760276       -1.5862703103      -12.2188548922
 C        -0.5883633282       -3.0465726976      -12.4102936857
 C         0.7638677302       -2.8782102362      -13.2048002737
 O         1.5874903023       -1.9853590010      -13.0467701016
 C         1.0769617015       -3.8924763033      -14.4510260350
 C         2.5517875094       -3.8506113566      -15.0175600732
 O         2.7942639989       -3.5937449404      -16.1491121109
 C         3.6783546501       -4.0008087941      -13.9016742830
 C         5.0203377446       -4.3708049237      -14.6885820361
 C         6.2356755756       -4.2838011331      -13.8048600896
 O         6.3965895332       -3.7549091777      -12.7365116219
 C         7.6962443562       -4.3432502014      -14.6719003537
 C         7.9250399358       -2.8621341098      -15.1758938187
 O         6.9830817647       -2.0547790031      -15.1024445905
 C         9.2670214119       -2.3879869429      -15.6950124482
 C        10.0698023700       -1.4640575802      -14.6700082261
 C         9.5379243831        0.0129700162      -14.5599823403
 O         8.6676258316        0.4558628011      -15.2726641349
 C        10.2090037037        0.9411854131      -13.4908752945
 C         9.1142974725        1.3665085363      -12.4179977898
 O         9.2654348447        1.3149058927      -11.2176914342
 C         7.7924201596        1.8102075613      -12.9842401668
 C         6.7253243303        0.6040856408      -13.1547343073
 C         5.4425449332        1.1195563834      -13.9554048807
 O         5.6844613429        1.3840294217      -15.1271810047
 C         4.0252175888        1.7173433652      -13.5299873101
 C         3.0883728267        1.4205334006      -14.7470367298
 O         2.7907221836        2.3385195967      -15.5182509257
 C         2.8753213673       -0.1689982857      -15.1376008200
 C         2.4560989480       -0.4803414751      -16.5744102175
 C         3.5387125537        0.0352251150      -17.6354197667
 O         4.7227120263       -0.1530473328      -17.5341583006
 C         3.0940638206        0.5859836181      -19.0602164111
 C         4.2717563681        0.8745136507      -20.0692611514
 O         4.5949667356        0.1488025372      -20.9790811667
 C         5.2351643593        2.0819723461      -19.7154490506
 C         6.6440142311        1.8065896699      -20.2375181792
 C         7.5590810329        1.5825641760      -19.0370159690
 O         7.3610924052        1.9648754546      -17.9087642763
 C         8.9321677855        0.7359278166      -19.3651188269
 C         8.7168816496       -0.7722561766      -19.0770993860
 O         8.1964301180       -1.1051801110      -18.0242737801
 C         9.5610209453       -1.8691702618      -19.6882095524
 C         9.6187589602        1.0315671272      -20.7240022509
 C        10.1190013065        1.2062829717      -18.3147002600
 C         2.1395237284       -0.3749654011      -19.6185535613
 C         2.3921293382        1.9208657367      -18.7329556338
 C         3.4193277527        1.2387575856      -12.1390874034
 C         4.2216305565        3.2657942919      -13.3389051590
 C        11.3655804444        0.1872978288      -12.6442200976
 C        10.8776278663        2.2248443014      -14.1383970990
 C         8.7145110338       -4.9097037449      -13.6134875306
 C         7.5970527892       -5.2573501418      -15.9443227788
 C         0.7544791416       -5.4012721164      -14.0258912304
 C         0.0760965710       -3.4185606130      -15.6275656531
 C        -3.8406375284       -0.3248158900      -13.4535459874
 C        -2.5475363202        0.8891134924      -11.4898298179
 C        -8.1803497395        0.4306243824       -7.1302180710
 C        -6.3227896919        1.2288183604       -5.5550747288
 C        -8.2802075819       -3.1164780190        0.7879134652
 C        -7.6909058674       -4.7310228479       -1.1345140863
 C       -14.0040055874        0.3907800591       -1.9131695608
 C       -13.8945329770       -1.0721840636        0.1290133862
 C       -16.5378845183       -4.2314411477       -6.2224666156
 C       -18.5892643887       -3.0807161156       -7.1429689543
 C       -22.1867672189       -6.0086208168       -1.1911337029
 C       -21.0553732395       -4.2657595917        0.2585461536
 H       -20.9058887440       -8.1690754682       -0.5741359080
 H       -19.1455214187       -8.3089649640       -0.1190971497
 H       -19.6505974260       -8.2509775545       -1.7562784368
 H       -22.1390326242       -4.5006939025       -3.8260234217
 H       -21.0189010590       -5.8675994888       -3.7930694469
 H       -20.5130128212       -3.0295275155       -4.8168773138
 H       -20.5226210543       -4.5979188030       -5.7137689275
 H       -15.4417346410       -1.5878720124       -4.8834797490
 H       -15.7153195324       -2.9987592992       -3.9944419163
 H       -17.3533388397       -1.5033427551       -2.5840218397
 H       -16.5023437750       -0.1242333117       -3.0586815249
 H       -12.5586308669       -4.1322731110       -1.7131641965
 H       -12.4548223143       -3.1597398290       -0.3008830038
 H       -10.6255269850       -1.7459893172       -1.3625983294
 H       -10.6140294570       -2.9128798060       -2.6825509765
 H        -7.7417059471       -3.2947736748       -3.7590967411
 H        -6.2173415852       -3.0748631816       -2.8867660900
 H        -5.8197933898       -0.8894995990       -3.6174584423
 H        -7.4893717461       -0.3981110730       -3.5116887135
 H        -6.3797934857        0.3044999409       -9.2262751646
 H        -6.1577569464       -1.3884944821       -9.2352803515
 H        -3.6818135062       -1.1731574925       -9.2847731358
 H        -3.9405483293        0.5072218395       -9.2421858489
 H        -0.4789951488       -0.9991898793      -11.5613972467
 H        -1.0423844027       -1.1045196779      -13.2552685008
 H        -1.2985302326       -3.6884699425      -13.0457998198
 H        -0.2220876774       -3.6158355037      -11.5237848557
 H         3.5258404432       -4.7990172848      -13.1671639709
 H         3.8464452982       -2.9655797359      -13.5559329080
 H         5.1778327105       -3.4469338685      -15.2816404651
 H         4.9552280844       -5.3691439662      -15.0411691019
 H         9.2761369673       -1.9848275511      -16.6887401270
 H         9.9200760821       -3.3194618676      -15.8651145194
 H        11.0755907683       -1.2788040906      -14.9893185127
 H        10.0564262768       -1.9332884791      -13.6679528169
 H         7.8946121031        2.1023169032      -14.0613548931
 H         7.3177191464        2.5518787300      -12.2462973852
 H         6.3690298811        0.3021309867      -12.0945289822
 H         7.0695879621       -0.3726501080      -13.5123671848
 H         2.1144262608       -0.7438937202      -14.5257773537
 H         3.7420721179       -0.7004570757      -14.7907146237
 H         1.5587375582        0.1245044584      -16.7344648800
 H         2.3590616133       -1.5614441505      -16.7882176817
 H         5.2379834596        2.2710356538      -18.6154320776
 H         4.7298034716        2.9611743056      -20.1352736029
 H         6.8900879147        2.6948770926      -20.8186543031
 H         6.6220803043        1.0485708434      -20.9897543266
 H        10.5083492299       -1.4534545959      -19.6031876568
 H         9.4739760624       -1.9531221828      -20.7461230658
 H         9.4056876012       -2.8702949170      -19.2907892622
 H        10.5896478703        0.5154943948      -20.7588821014
 H         9.7558687897        2.0479534564      -20.8810655741
 H         8.9800034303        0.6240358972      -21.6473933293
 H        10.9958079458        0.5439894586      -18.5080891865
 H         9.7480115342        1.0276053061      -17.2860322997
 H        10.5306296337        2.2618235562      -18.3909918036
 H         2.5810898104       -1.3793436870      -19.8768885649
 H         1.7231736144       -0.0728424394      -20.5741823239
 H         1.3039859221       -0.5378405556      -18.9462979278
 H         2.9373424378        2.6416455413      -18.1263913407
 H         1.4413572960        1.7359654560      -18.3473412826
 H         2.3695776158        2.5009927464      -19.6218487756
 H         3.4557917753        0.1080695431      -12.0147531284
 H         2.4147100282        1.6234590320      -11.9444498840
 H         4.0239418114        1.6283540195      -11.3101615553
 H         3.5181764535        3.7039340202      -12.6213613827
 H         4.3313699772        3.7705841235      -14.3088726758
 H         5.1925701123        3.4553627090      -12.8818847423
 H        11.7907210874        0.8536714366      -11.8837817715
 H        12.1808379451       -0.0999133045      -13.3268436480
 H        10.9933651780       -0.6902355488      -12.2357273149
 H        10.0994279254        2.8491313006      -14.4791488794
 H        11.6365939866        1.8791072735      -14.7994208171
 H        11.3685217208        2.8006055216      -13.3004414609
 H         8.2479290167       -5.8396271152      -13.3773242568
 H         8.7114433913       -4.1983884593      -12.7685858795
 H         9.6792527832       -5.2466299163      -13.9434289515
 H         7.4456593750       -6.2543345896      -15.7535546833
 H         8.5161613298       -5.2072001999      -16.5344600838
 H         6.7395985966       -5.0025207558      -16.6149025596
 H         1.0493211590       -5.6159827106      -12.9619750056
 H         1.3116773209       -6.0799646014      -14.6247871629
 H        -0.2770084196       -5.7131279953      -14.1260164339
 H         0.2954721191       -2.3763483126      -15.7709261120
 H        -0.9855983632       -3.5546966217      -15.4302658005
 H         0.2411298543       -4.0599916356      -16.5130579175
 H        -3.0124866626       -0.7834737211      -14.0513232103
 H        -3.9802552426        0.6848335987      -13.8611035636
 H        -4.8397315272       -0.8479626222      -13.5717257503
 H        -2.3247292467        0.7739617692      -10.4105224344
 H        -2.9831735814        1.8962171532      -11.5384908928
 H        -1.6354765464        1.0553013020      -12.0776470555
 H        -8.4698723595       -0.3755703449       -7.7814210854
 H        -8.0096894352        1.4020665393       -7.6119273305
 H        -8.9987707713        0.5768181854       -6.3842037445
 H        -7.1645191165        1.8810989434       -5.1758841359
 H        -5.5855826344        1.7143662681       -6.2777845260
 H        -5.7339567915        0.9215304012       -4.6782028167
 H        -8.3650262619       -4.1103907938        1.3350392930
 H        -9.0212048635       -2.4509301674        1.1296458348
 H        -7.2518040974       -2.7229719450        1.0063892318
 H        -7.8701178525       -5.4705947398       -0.4307812764
 H        -6.5858277462       -4.6561504270       -1.1104285027
 H        -7.9219275790       -5.0756894402       -2.1573056112
 H       -14.5601764711        1.0643285887       -1.2870909734
 H       -14.1291122661        0.5596827065       -3.0204007989
 H       -12.9586407879        0.6680588431       -1.8919977218
 H       -12.8719613186       -0.8758483441        0.2950517707
 H       -14.0594317921       -2.0828489302        0.5087213997
 H       -14.4193830445       -0.2949757953        0.6372980991
 H       -16.7293291116       -4.7269360322       -7.1662521541
 H       -16.2647125515       -5.0039410948       -5.4885695764
 H       -15.7071031241       -3.5737108914       -6.4086928470
 H       -18.1504952608       -2.3837112186       -7.7502663249
 H       -19.5951027999       -2.5971810772       -6.8689606509
 H       -18.6404840956       -4.1199677125       -7.6314547158
 H       -22.1641106416       -6.7214331307       -2.0451093986
 H       -22.9341612356       -5.2858456297       -1.2335089037
 H       -22.3705052008       -6.6183588619       -0.3394674990
 H       -21.3024706088       -4.7593956625        1.1962004349
 H       -21.9404702759       -3.5988619075        0.1013018230
 H       -20.1582705322       -3.6935008410        0.3569394174
 Na      -17.7563858876       -3.6726929200       -1.3900823519
 Na        6.8691112045       -0.0812488664      -16.3988740288
