232

 C       -19.8861641542       -7.8033667339       -0.7785388705
 C       -19.6039821891       -6.3375983664       -0.8635922187
 O       -18.5161058438       -5.8109006395       -0.8431520266
 C       -20.8449676532       -5.2722654093       -0.9783681716
 C       -20.4872118008       -4.3369058746       -2.1894672485
 O       -19.7443054214       -3.3806868843       -2.0175892131
 C       -20.9629776087       -4.7416421320       -3.6037615595
 C       -20.2523290070       -4.0699862903       -4.8229361092
 C       -18.7413487260       -4.1754419695       -4.7442484995
 O       -18.0921474429       -4.6667518763       -3.7959310367
 C       -17.8150308173       -3.4303944398       -5.9276063241
 C       -17.4615023386       -2.1094019085       -5.0786497063
 O       -18.2714180588       -1.2220147222       -4.9492557877
 C       -16.1729548888       -2.0365557684       -4.1799986468
 C       -16.3694560611       -1.0789655078       -2.9038641454
 C       -15.5536451954       -1.6881716909       -1.7064804842
 O       -15.9015564901       -2.6103346518       -0.9989741228
 C       -14.1038080707       -1.1042420517       -1.4061913175
 C       -13.1856634500       -2.0610979411       -2.2287938831
 O       -13.2730421196       -2.0615265468       -3.4213733516
 C       -12.3266879445       -3.1441997625       -1.5355923330
 C       -10.7958731401       -2.8745600784       -1.7141941456
 C        -9.9631194774       -3.8460725049       -0.9246923408
 O       -10.4181127339       -4.6680820614       -0.1779822185
 C        -8.3007574249       -3.5391310704       -0.8176087429
 C        -7.8575563249       -2.2084421723       -1.6651341232
 O        -8.1471875309       -1.1499111375       -1.2195064891
 C        -7.4001985085       -2.3967389499       -3.0779016155
 C        -6.8502437249       -1.1814395189       -3.8720719148
 C        -7.1873427170       -1.2363327255       -5.4073297526
 O        -7.6017360987       -2.2547642267       -5.9324210764
 C        -6.8963311408        0.0404842404       -6.3660736466
 C        -5.7171994941       -0.3853091589       -7.2912192294
 O        -4.6333258559       -0.4957904581       -6.7935605357
 C        -5.8077120787       -0.5479269554       -8.7590542659
 C        -4.5144549265       -0.4664250818       -9.5415686243
 C        -4.7434323843       -0.4912816150      -11.0593577171
 O        -5.8424963085       -0.7640236063      -11.4999459162
 C        -3.4691110717       -0.2898827689      -12.0647891002
 C        -2.7249284991       -1.6200107621      -12.0373060577
 O        -3.3199624779       -2.7099625667      -11.9707979191
 C        -1.1975327991       -1.5754393502      -12.2607962827
 C        -0.5046621428       -2.9351364334      -12.4999867986
 C         0.8332252924       -2.8894573924      -13.2421739495
 O         1.5733720385       -2.0012404901      -13.0230284130
 C         1.1252400204       -3.9011488121      -14.3689389946
 C         2.5423692461       -3.8021185652      -14.9164660967
 O         2.7473748637       -3.6235506018      -16.0670234872
 C         3.7165273845       -4.0488395353      -13.9296253102
 C         5.0400108056       -4.3429277923      -14.6999704272
 C         6.3099387227       -4.0752813388      -13.8749243738
 O         6.3102533613       -4.0105621861      -12.6700458970
 C         7.6456853632       -4.3513727335      -14.6158577306
 C         7.9834635019       -2.8563096654      -15.0176572971
 O         7.0481727075       -2.0922630113      -15.1729649786
 C         9.3715519233       -2.4001027510      -15.3692422196
 C        10.1560142492       -1.4999341692      -14.4622621499
 C         9.6479222208       -0.1146262918      -14.5174620064
 O         8.8765118301        0.3735200821      -15.3053054293
 C        10.2526149071        0.8435156326      -13.5241374730
 C         9.1291731036        1.3505360155      -12.5405380609
 O         9.3939570536        1.3134062863      -11.3938693677
 C         7.7733873725        1.8623638968      -13.0861446267
 C         6.7063550647        0.7020763149      -13.0127404828
 C         5.5061899286        1.1763238685      -13.8894381763
 O         5.7618065643        1.1945058606      -15.0853336378
 C         4.1081598217        1.5843720952      -13.5302471667
 C         3.1470275728        1.2935694958      -14.6958525375
 O         2.6316519515        2.1417759892      -15.4685730431
 C         2.8925010152       -0.0845685382      -15.0702521009
 C         2.5667143984       -0.2357582580      -16.5674182920
 C         3.6681010274        0.0068295256      -17.6222597710
 O         4.8982065845       -0.1709082789      -17.5062692129
 C         2.9986748418        0.5163743629      -19.0245817446
 C         4.3213497901        0.8456491950      -19.9077040667
 O         4.4699510647        0.0839317767      -20.8380663561
 C         5.1364725524        2.0919290507      -19.6400413281
 C         6.6169777155        1.9805675780      -20.1375417729
 C         7.6773569680        1.6099638623      -19.0185096417
 O         7.2936111852        1.8901937221      -17.8921136371
 C         8.9984772485        0.7806096985      -19.3657179372
 C         8.8382423107       -0.6668366502      -18.9564027541
 O         8.1545618390       -1.0216252171      -18.0053792941
 C         9.6117925166       -1.7684703984      -19.7656002480
 C         9.4791754235        0.8414461476      -20.8369139090
 C        10.1176221660        1.2025649800      -18.4043382875
 C         2.0827438472       -0.4661500884      -19.7502404707
 C         2.0954771783        1.9234436072      -18.8156159224
 C         3.5047672979        0.9581779947      -12.2223548020
 C         4.0888680099        3.1887170949      -13.4460665645
 C        11.3294427526        0.1439980882      -12.6262498279
 C        10.8665423835        2.1272445433      -14.1922652039
 C         8.7016810621       -4.7877045812      -13.6446940816
 C         7.5417871258       -5.2636476980      -15.8587361506
 C         0.8032096815       -5.4023648894      -14.0108732200
 C         0.0646154757       -3.4252962888      -15.4136091224
 C        -4.0045138137       -0.1675636929      -13.5779490972
 C        -2.6456230300        0.9224393705      -11.6753829961
 C        -8.1747274341        0.3924882665       -7.1319966702
 C        -6.4558545518        1.2555319006       -5.5574457737
 C        -8.0907910276       -2.9951145772        0.6055777162
 C        -7.5516495885       -4.8232661693       -1.1251109464
 C       -14.0518329062        0.2909276916       -2.0538883097
 C       -13.7623889586       -1.0525003827        0.1298372749
 C       -16.5575668128       -4.1741606521       -6.2916066651
 C       -18.5357891879       -2.9967934501       -7.1922470512
 C       -22.1919106003       -6.0412757174       -1.1259121707
 C       -20.8881565064       -4.2581184005        0.1952617256
 H       -20.8771784844       -8.0242472187       -0.3530216154
 H       -19.1417809832       -8.3058839933       -0.1947770371
 H       -19.8592597797       -8.3875012078       -1.7447648901
 H       -22.0494460991       -4.6032831927       -3.7267186976
 H       -20.8510025515       -5.8051078226       -3.6946571961
 H       -20.3565780560       -2.9759331613       -4.7464274564
 H       -20.7197946735       -4.5459934964       -5.6708547095
 H       -15.2233322209       -1.6690793614       -4.6941244579
 H       -15.9305096366       -2.9659442439       -3.8260468748
 H       -17.4047703004       -0.9045441554       -2.6717377550
 H       -16.0017753111       -0.0590415290       -3.1946639657
 H       -12.7792668840       -4.0882073405       -1.8973950384
 H       -12.5613997425       -3.2121840001       -0.4419987556
 H       -10.5070801217       -1.8564595486       -1.4746574579
 H       -10.5464443306       -3.0355341577       -2.7477497734
 H        -8.1394826262       -2.9994035703       -3.6197590140
 H        -6.5400372509       -3.0374279792       -3.1378819020
 H        -5.7419793629       -1.3171594613       -3.7787842509
 H        -7.1125719177       -0.1476652745       -3.4830645468
 H        -6.5252847067        0.1316987460       -9.2411061890
 H        -6.1331614558       -1.5167845266       -9.0621286317
 H        -3.8170457021       -1.3163476198       -9.2480889846
 H        -3.9101959788        0.4089117479       -9.2143195851
 H        -0.6580617528       -1.1246067872      -11.3950417470
 H        -0.9771838538       -0.8809002404      -13.1040178621
 H        -1.0849221819       -3.6519799156      -12.9947968807
 H        -0.1676135565       -3.3337508625      -11.5355463957
 H         3.5661046329       -4.9969466784      -13.4103512046
 H         3.7983846998       -3.1535893157      -13.3548471473
 H         4.9890154462       -3.6643794868      -15.5184299649
 H         5.0758328287       -5.4476368950      -14.7547058588
 H         9.3950598443       -1.9578855560      -16.3930219331
 H         9.9764531218       -3.2879099766      -15.5459317211
 H        11.1366637606       -1.3943347872      -14.7798334771
 H        10.0827610588       -1.8276899615      -13.4369541166
 H         7.8287372410        1.9638042653      -14.1852139221
 H         7.4049585415        2.7675992932      -12.4640014200
 H         6.4506406636        0.4931892432      -12.0129193291
 H         7.1262235834       -0.2879644889      -13.3273856814
 H         1.9567455862       -0.4504077778      -14.4640911479
 H         3.6463286428       -0.7922098051      -14.5901287517
 H         1.7636008196        0.4991324117      -16.7973772142
 H         2.3437408109       -1.2808272741      -16.8440309523
 H         5.0810235759        2.3439778710      -18.5757037437
 H         4.4260379519        2.8570189507      -20.1324920509
 H         6.8517295541        2.9324636148      -20.6509215163
 H         6.5818316634        1.3325967581      -20.9929822112
 H        10.7287752284       -1.6482351825      -19.5724344648
 H         9.5767020024       -1.6132791337      -20.8160973281
 H         9.1963774418       -2.7467634067      -19.6858258634
 H        10.5082841666        0.4020646595      -20.8758946137
 H         9.5975743118        1.8459646942      -21.2528778201
 H         8.8345307658        0.2343370575      -21.5110729250
 H        11.0541338162        0.6316243649      -18.7164849415
 H         9.8326696713        0.9940386404      -17.3512562879
 H        10.3676598915        2.2963054519      -18.4269226320
 H         2.4161577256       -1.4594795363      -20.0517195507
 H         1.8132039029       -0.0838676916      -20.6692972642
 H         1.1174642316       -0.5403961101      -19.1443180223
 H         2.4545192374        2.5803672502      -18.0317238527
 H         1.0301797849        1.7452028009      -18.7702316667
 H         2.3867711892        2.5975147646      -19.6464536688
 H         3.5806111365       -0.1143857549      -12.1249292258
 H         2.4621933614        1.2888228187      -12.0960276255
 H         4.0582566355        1.3498848695      -11.3503924523
 H         3.4547258698        3.6557900139      -12.6687660965
 H         3.9469580282        3.4029444963      -14.4793841073
 H         5.0436683921        3.6638525308      -13.2849844684
 H        11.7037211143        0.8239905021      -11.9249712278
 H        12.1662168789       -0.0952729932      -13.3338839879
 H        11.0248093485       -0.8433818714      -12.2672241402
 H        10.0784506948        2.4357957149      -14.9445031847
 H        11.8554668541        1.8363563623      -14.5083830817
 H        10.9223823164        2.9453219690      -13.5499234084
 H         8.2922435577       -5.6715807864      -13.1268622403
 H         8.8319302473       -3.9303028152      -13.0022068387
 H         9.5555901863       -5.2043948514      -14.0896732889
 H         7.1113571414       -6.2869543300      -15.7315737411
 H         8.5218603382       -5.3411605108      -16.2581573410
 H         6.9479406559       -4.8632708881      -16.6742865617
 H         1.3844079883       -5.7427639796      -13.1532101903
 H         1.0628760936       -6.0267304539      -14.8488407558
 H        -0.2051377158       -5.5943802337      -13.8071250447
 H        -0.1163261741       -2.3535587902      -15.1734114118
 H        -0.9000263546       -4.0339013859      -15.4122663303
 H         0.4414247934       -3.6314593055      -16.4389007443
 H        -3.2587716962       -0.1481750960      -14.3263909842
 H        -4.6297292944        0.7882993485      -13.6929136597
 H        -4.7218949358       -1.0001124966      -13.7038486762
 H        -2.1289879476        0.8165917280      -10.7550892328
 H        -3.3514083345        1.8059246750      -11.5014600391
 H        -1.9914436150        1.3497107537      -12.4380176619
 H        -8.6100222491       -0.5662607700       -7.4779956942
 H        -7.8979729999        1.1525386847       -7.9579876717
 H        -8.8751269979        0.8928641076       -6.4775207628
 H        -7.2926128401        1.4592366833       -4.8480602672
 H        -6.2342974555        2.0571868353       -6.2846907427
 H        -5.5223076953        1.0822520386       -4.9877519264
 H        -7.9546950170       -3.8606143732        1.2290849553
 H        -8.9257766317       -2.3852186889        1.0290633493
 H        -7.1121472796       -2.4465231863        0.6399801936
 H        -7.7424067534       -5.5413986631       -0.3481250703
 H        -6.4607271551       -4.7831458755       -1.0349707848
 H        -7.7568906076       -5.2137130484       -2.0951510679
 H       -14.9053102084        0.8872063810       -1.8464957950
 H       -13.7888535141        0.1693187445       -3.0445891364
 H       -13.1496504791        0.8850397265       -1.6887753136
 H       -12.7345712567       -0.9934655341        0.3431605484
 H       -14.2110875914       -1.8734655990        0.5847727229
 H       -14.1039782435       -0.1613704065        0.5398275510
 H       -16.8608936234       -4.8170917335       -7.0224740963
 H       -16.0446134232       -4.7549047831       -5.4806323496
 H       -15.8279984219       -3.5029833807       -6.7598883647
 H       -17.8741306537       -2.7505702360       -8.0981082481
 H       -18.9475348902       -2.0217195805       -6.9265249966
 H       -19.2295208842       -3.8280993479       -7.5186222119
 H       -22.1739819488       -6.5960957053       -1.9623718625
 H       -22.9410726881       -5.2717026270       -1.1846723956
 H       -22.4495046691       -6.7237977449       -0.3105807047
 H       -20.9555448502       -4.6723991254        1.1693072970
 H       -21.7470940498       -3.6483228212        0.0868053170
 H       -19.9505684860       -3.6779628234        0.1598438871
 Na      -17.7531805837       -3.7470181476       -1.3047556168
 Na        6.7708345451       -0.0565802554      -16.3605926994
