232

 C       -19.8365443030       -7.6719572626       -0.6886539331
 C       -19.6008908882       -6.2544208091       -0.8637446200
 O       -18.4760453319       -5.8875996017       -0.9259659019
 C       -20.8379488514       -5.2429004045       -1.0294999364
 C       -20.3700527756       -4.3831332211       -2.2571656186
 O       -19.7086021027       -3.3989600908       -2.0085719424
 C       -20.8576638558       -4.7652434312       -3.6236736405
 C       -20.1748835068       -4.0121955593       -4.7921490066
 C       -18.6309004755       -4.1120588958       -4.7402854906
 O       -18.1572423384       -4.7120087952       -3.8370240574
 C       -17.8226732907       -3.3637875492       -5.8610134835
 C       -17.4975824871       -2.0717005387       -4.8908543241
 O       -18.2323276318       -1.1331469844       -4.9741736864
 C       -16.2326146290       -2.1462447820       -4.0687946861
 C       -16.3127504440       -1.2741445027       -2.8749790218
 C       -15.4924042433       -1.6502481804       -1.6812582295
 O       -15.9164309702       -2.6058883828       -0.9888191935
 C       -14.1437101737       -1.0088977555       -1.4398368410
 C       -13.2016624938       -2.0572448106       -2.2697611269
 O       -13.2253911883       -1.9173073653       -3.4671274098
 C       -12.3435402582       -3.1710311578       -1.5953704268
 C       -10.7630683344       -2.8614776075       -1.8572687613
 C        -9.8515879549       -3.7306470569       -0.8675181028
 O       -10.3485531899       -4.5600698460       -0.1528485915
 C        -8.2885295245       -3.4769776592       -0.8469701938
 C        -8.0311081134       -2.2073022201       -1.8619287883
 O        -8.1476390382       -1.1112703544       -1.3485247563
 C        -7.4804400739       -2.4465203282       -3.2845208662
 C        -6.8912196473       -1.2027846261       -3.9205554205
 C        -7.2149937093       -1.2033733421       -5.4044577799
 O        -7.7647352599       -2.1588463820       -5.8905597411
 C        -6.9965038629        0.0385618977       -6.3000339351
 C        -5.6712505803       -0.2873790982       -7.2369956731
 O        -4.5855516656       -0.2767764906       -6.6944289144
 C        -5.9567518727       -0.6504965782       -8.7460196121
 C        -4.6056184595       -0.5417521810       -9.5761530294
 C        -4.7789809921       -0.5443799139      -11.1507692824
 O        -5.8977677152       -0.6609501663      -11.6050480357
 C        -3.5932216057       -0.3075021989      -12.1605998389
 C        -2.7211961117       -1.6688824665      -12.2262475450
 O        -3.2257731602       -2.7365021031      -12.0719971753
 C        -1.1946705525       -1.5925739331      -12.3087146554
 C        -0.5681151405       -2.9264513438      -12.3972370353
 C         0.8804752971       -2.8828538796      -13.1304953825
 O         1.6737759129       -1.9615500766      -12.9610197433
 C         1.0399418032       -3.8769333068      -14.3083076121
 C         2.5229178530       -3.8025847133      -14.8209087714
 O         2.7387054969       -3.5877829785      -16.0619135847
 C         3.7090689552       -4.0631372846      -13.9161454800
 C         4.9555389777       -4.3684122123      -14.7160079633
 C         6.2920529750       -4.2903782360      -13.8076936820
 O         6.1315765857       -4.1544771306      -12.6175825697
 C         7.6749088585       -4.2438977706      -14.4975653044
 C         7.9844156991       -2.8172989435      -15.1002718438
 O         7.0626571554       -2.0502383166      -15.2156552213
 C         9.5339757297       -2.6387137946      -15.4077373638
 C        10.1286699263       -1.7099970218      -14.3311683827
 C         9.8187564925       -0.1548879360      -14.5219964050
 O         9.1024554274        0.2355721071      -15.4332656563
 C        10.4288114155        0.8672926901      -13.4962589038
 C         9.1664087211        1.3145307776      -12.5240438991
 O         9.3397762736        1.3934383119      -11.2978482465
 C         7.8003261622        1.8405972683      -13.1374715625
 C         6.5940483400        0.9352982573      -12.8175933202
 C         5.4818893247        1.2159836373      -13.9074468541
 O         5.7389079948        1.1730814516      -15.0763951998
 C         4.0896122096        1.6299182332      -13.5163114946
 C         3.1685809098        1.1973311449      -14.7720791363
 O         2.5718234409        2.0826606451      -15.2527992564
 C         2.9886271254       -0.2771599866      -15.1415567284
 C         2.4965614619       -0.2932278570      -16.5966528938
 C         3.5600866731        0.0705344625      -17.6641457069
 O         4.7335308442       -0.1756920817      -17.5864709755
 C         2.9768976713        0.5939689586      -18.9907261280
 C         4.2590705217        0.8524432129      -19.9146759000
 O         4.5163396111        0.0367480913      -20.7482346862
 C         5.1470433076        2.0872736668      -19.6260640627
 C         6.6085600177        2.0266516221      -20.0929225054
 C         7.6053514024        1.5222958361      -19.0447800020
 O         7.4423439785        1.7253986932      -17.8670042639
 C         9.0086878881        0.8313676684      -19.4000181534
 C         8.8068249065       -0.6774127935      -18.9403554521
 O         8.1177202724       -1.0976393940      -18.0250306833
 C         9.5856476114       -1.7265428178      -19.7520049467
 C         9.2388756558        0.9305515729      -20.9249852496
 C        10.1031105393        1.3953552355      -18.4538942672
 C         2.1777036686       -0.5071568699      -19.6903828115
 C         2.0917591763        1.7792671122      -18.8239870138
 C         3.6296501319        0.8005840432      -12.2969612483
 C         4.0464245023        3.2094877173      -13.3407811643
 C        11.4683760810        0.2684125097      -12.5439207114
 C        10.8715769271        2.0815879554      -14.2792577402
 C         8.8122764058       -4.7781613608      -13.5688219774
 C         7.5566784964       -5.1586006368      -15.7408583833
 C         0.8256380900       -5.3710555169      -13.9246661387
 C         0.0466441308       -3.4874965715      -15.4115659025
 C        -4.2277201179        0.0077275383      -13.5164293695
 C        -2.8010552132        0.9409117031      -11.8453682182
 C        -8.2497907066        0.2713889919       -7.1514318397
 C        -6.5652589328        1.3572113747       -5.4906891062
 C        -7.8885799853       -3.0087697543        0.5959989871
 C        -7.4686658184       -4.7698564467       -1.1549948256
 C       -13.8663245759        0.3813350286       -2.0945648844
 C       -13.7589398174       -1.0344317115        0.0224604182
 C       -16.5442797156       -4.2222979307       -6.2448148222
 C       -18.6373073978       -2.8812872789       -7.1200443148
 C       -22.2140867380       -5.9440653724       -1.0988864849
 C       -20.7592832148       -4.4367315650        0.2882593223
 H       -20.6348779873       -8.0735376714       -0.1119167198
 H       -18.9175508586       -8.1139944288       -0.4550417904
 H       -20.0202508719       -8.0809534226       -1.7263662420
 H       -21.8735555814       -4.5408749544       -3.6302780296
 H       -20.8677843862       -5.8591830565       -3.8057904575
 H       -20.3310581811       -2.9011074208       -4.6692043439
 H       -20.7148782580       -4.4927517694       -5.6011728252
 H       -15.2984721876       -1.8761815410       -4.5931654209
 H       -16.1439263425       -3.2543740005       -3.7293817618
 H       -17.4034952142       -1.2501334524       -2.5447395055
 H       -16.1446308991       -0.2820506685       -3.2347092410
 H       -12.7689324581       -4.1427311170       -1.9599462020
 H       -12.5703151764       -3.2265386096       -0.5743725756
 H       -10.5213994354       -1.8315284387       -1.6747430630
 H       -10.5662416655       -3.0841417129       -2.9228818645
 H        -8.4005998126       -2.5187999100       -3.8210740647
 H        -6.9895987519       -3.3376174309       -3.5534969292
 H        -5.7790911700       -0.9818606786       -3.7453958125
 H        -7.4870646982       -0.3670867154       -3.4700627402
 H        -6.6642114704        0.0985183386       -9.2283020559
 H        -6.4499413395       -1.6536673055       -8.9068537253
 H        -3.8980209041       -1.2498516270       -9.1990676327
 H        -4.1664620603        0.4404147525       -9.2634224563
 H        -0.8059105491       -1.1197080649      -11.3816621562
 H        -0.7869302167       -0.9410889066      -13.0652930058
 H        -1.0076580485       -3.4789264800      -13.1583726744
 H        -0.6681957850       -3.4064354767      -11.4584938865
 H         3.5236023170       -4.9951173132      -13.4352855008
 H         3.7728336720       -3.1609646744      -13.3355708786
 H         4.9387382312       -3.4706305715      -15.2915115002
 H         4.7666133658       -5.3750678420      -15.1293894089
 H         9.7397932027       -2.0959959032      -16.3536236410
 H        10.0437554435       -3.5470579066      -15.5465609032
 H        11.2316265256       -1.7603525309      -14.3602483776
 H         9.7254448945       -1.9032296904      -13.3630046671
 H         7.8238949220        1.9766158202      -14.2169692705
 H         7.6295920044        2.7401144320      -12.5669801983
 H         6.2965104818        1.1131563671      -11.8249203233
 H         6.9333910139       -0.0968560407      -12.7561034334
 H         2.2537301142       -0.6769674913      -14.4292989313
 H         3.9061139296       -0.9528470849      -14.8941772207
 H         1.6791845125        0.4394515357      -16.6813746314
 H         2.2905565315       -1.2993501384      -16.9631052797
 H         5.2136668571        2.1912535907      -18.5259419585
 H         4.4918555670        2.9197993958      -19.9488640933
 H         6.9453648239        3.0141680579      -20.4277265247
 H         6.6450501909        1.4925425505      -21.0787300614
 H        10.6864597266       -1.6594246041      -19.5608700954
 H         9.5049370700       -1.7034751088      -20.8736261115
 H         9.1297093675       -2.6930216819      -19.5316584089
 H        10.2482207635        0.5820237900      -21.2188177189
 H         9.2767705372        2.0398148250      -21.2722340952
 H         8.5545368309        0.3743129963      -21.4139268657
 H        11.0505683909        0.8826648145      -18.6754954641
 H         9.8585968535        1.3928520265      -17.3811443286
 H        10.1988577976        2.4654194580      -18.6885409027
 H         2.7898133415       -1.3448478872      -19.8722473263
 H         1.9603870781       -0.2592818069      -20.7655314826
 H         1.2428030177       -0.7766007891      -19.2282384925
 H         2.2942325269        2.3359136541      -17.9140061582
 H         1.0316520009        1.3431575728      -18.8279080041
 H         2.2369310408        2.5731028869      -19.5790396174
 H         3.8381905060       -0.1944163561      -12.5930725511
 H         2.5653534891        0.8592754355      -12.0778288643
 H         4.1984054770        0.8549272795      -11.3706488981
 H         3.4018085794        3.5891252528      -12.5568826255
 H         3.9519173798        3.5073458318      -14.3672946059
 H         5.0063446952        3.6537773387      -13.0663334989
 H        11.8937980739        1.1095218082      -12.0069450097
 H        12.2584355168       -0.2710950879      -13.0661215370
 H        10.9662838057       -0.5678645415      -11.9577799544
 H        10.2166452057        2.0833931541      -15.1551284792
 H        11.9519418550        1.9056313591      -14.4224195068
 H        10.6868935633        3.0614876632      -13.8781109435
 H         8.4785434264       -5.6914834049      -13.0803643938
 H         9.1227591131       -3.9916195209      -12.9238684138
 H         9.5845374498       -5.2094784190      -14.2171669786
 H         6.9230909162       -6.0512539992      -15.4063601636
 H         8.5219496793       -5.5175785020      -16.1703876407
 H         7.0400969294       -4.8279514145      -16.6372305407
 H         1.6698181897       -5.7265166439      -13.4372222731
 H         0.7019880276       -5.9606417871      -14.8395626188
 H        -0.0303831696       -5.6048419153      -13.3051059898
 H        -0.4122097551       -2.4905558211      -15.1287649365
 H        -0.7081794555       -4.2630120103      -15.6584766275
 H         0.6093613748       -3.4676116529      -16.3583453565
 H        -3.4985943587        0.4699475070      -14.2128409829
 H        -5.0456577767        0.7010428840      -13.4428196172
 H        -4.5787730824       -0.8752967873      -13.9775476224
 H        -2.0288171943        0.7975677331      -11.0913403608
 H        -3.3777168239        1.8114498611      -11.5413052483
 H        -2.2911526108        1.3132538996      -12.7299126303
 H        -8.7533164770       -0.7034598056       -7.4014943834
 H        -7.9291957233        0.8793370994       -7.9921555628
 H        -8.9326406247        0.9107209330       -6.5811261625
 H        -7.0161423368        1.3125095981       -4.5310118391
 H        -6.8333082959        2.2094106758       -6.0410993197
 H        -5.4731368856        1.4255475597       -5.3784879201
 H        -7.9409524666       -3.8728571837        1.2249217126
 H        -8.6373936222       -2.2532577310        1.0039888528
 H        -6.8897619687       -2.6310584912        0.6303710645
 H        -7.7218237582       -5.5541166204       -0.3771675274
 H        -6.4505479613       -4.6820619455       -0.8748281342
 H        -7.5306635169       -5.1650090285       -2.1376005299
 H       -14.7479432823        1.0160354852       -2.0557709265
 H       -13.5165823836        0.1883296195       -3.0884711331
 H       -13.0850111532        0.9690530009       -1.6178797411
 H       -12.6909938649       -0.9464385276        0.1912544579
 H       -14.2854980759       -1.8126807842        0.5033627606
 H       -14.0480146607       -0.0929759129        0.4887141362
 H       -16.9717976601       -5.1638898765       -6.6990948907
 H       -15.9189457154       -4.4513013345       -5.4094680075
 H       -15.8937278915       -3.7515837172       -6.9849668444
 H       -17.9497299400       -3.1697292327       -8.0346804242
 H       -18.6679442739       -1.8001407064       -7.1782119060
 H       -19.5102459276       -3.4530845913       -7.2756436034
 H       -22.1727257203       -6.6921009893       -1.9144107998
 H       -22.9907301826       -5.1989427042       -1.3271054922
 H       -22.4740316950       -6.4665266663       -0.1984390375
 H       -20.8847876237       -5.1518161417        1.1063445948
 H       -21.5567072491       -3.7376628733        0.3558167611
 H       -19.7768403597       -4.0146564406        0.4652362904
 Na      -17.7433919813       -3.8679966262       -1.2938595075
 Na        6.8344908107       -0.0989060677      -16.4492047880
