232

 C       -19.8995113489       -7.8191699145       -0.6361271143
 C       -19.5486585083       -6.3801324233       -0.9388840190
 O       -18.3735227605       -5.9176853844       -0.9153872682
 C       -20.7135445764       -5.2878042990       -0.9438438082
 C       -20.4516078763       -4.2912400461       -2.2432082115
 O       -19.7386329676       -3.2808919200       -2.1428162546
 C       -20.8987777454       -4.7762155411       -3.6689470981
 C       -20.1984294780       -3.9122624313       -4.7532778645
 C       -18.6590516800       -4.1217292547       -4.7362972387
 O       -18.0265237093       -4.7612199973       -3.9206683110
 C       -17.8687390910       -3.3272328837       -5.7775917512
 C       -17.4101659276       -2.0788083834       -4.9770320926
 O       -18.1239274077       -1.0929964675       -4.9383343177
 C       -16.3090361375       -2.2738526967       -3.9790358087
 C       -16.4490817433       -1.2605964067       -2.8356289724
 C       -15.4668783302       -1.5960980307       -1.6835404826
 O       -15.7742489141       -2.5272579296       -0.8956118396
 C       -14.0537353619       -1.0311337819       -1.5010753824
 C       -13.0837579730       -2.0566936605       -2.3733007228
 O       -13.1032383136       -1.8927300266       -3.5901731071
 C       -12.2271333481       -3.1191221126       -1.6574880649
 C       -10.7731868158       -2.8724282071       -1.8745335143
 C        -9.8644650413       -3.6315941433       -0.8870838951
 O       -10.2541714505       -4.4784665865       -0.1213679706
 C        -8.2519882907       -3.3375826184       -0.8652075960
 C        -7.9605167932       -2.2660693376       -1.8897017650
 O        -8.1669348859       -1.0723069309       -1.5922652476
 C        -7.6591517031       -2.5308727316       -3.3163886254
 C        -7.0547444245       -1.2259267899       -3.9205583107
 C        -7.2887637579       -1.1558481034       -5.4405185032
 O        -7.9021659928       -2.0717535136       -5.9477936493
 C        -7.0009463108        0.1090981266       -6.3775765368
 C        -5.7069124384       -0.2030916760       -7.2444807601
 O        -4.5789064527       -0.0950422019       -6.7491281507
 C        -5.8883545171       -0.6723916309       -8.6873819708
 C        -4.5933294512       -0.5583946745       -9.6528792260
 C        -4.9820557525       -0.5760336738      -11.1469683299
 O        -6.0709816481       -0.6021009649      -11.6356519602
 C        -3.6689485032       -0.3375892420      -12.2407112155
 C        -2.7313475652       -1.6128923814      -12.2232141601
 O        -3.2318820555       -2.7099453340      -12.2366824931
 C        -1.1627178665       -1.4592153511      -12.3003875625
 C        -0.5482711328       -2.8838678016      -12.3953356372
 C         0.8149382879       -2.8768031929      -13.1895967188
 O         1.6432914921       -2.0474813981      -12.7594087272
 C         1.0658747917       -3.9112144641      -14.3000053705
 C         2.5191289290       -3.8374643916      -14.8460619376
 O         2.7027562289       -3.5003232411      -16.0152179280
 C         3.7071174491       -4.0734045152      -13.8991803273
 C         5.0172226407       -4.3049439736      -14.6936938052
 C         6.1541282456       -4.3362105471      -13.7108840593
 O         6.0371304794       -4.3113545856      -12.5136014802
 C         7.6290960098       -4.3625272719      -14.4584577835
 C         8.0314003432       -2.9029905859      -15.0557581517
 O         7.2199607750       -2.0124796190      -15.2724062158
 C         9.4358849218       -2.6113918603      -15.4060645074
 C        10.0722970223       -1.8262616705      -14.2623928394
 C         9.9208118685       -0.2578867476      -14.4299856408
 O         9.4034638030        0.0411973258      -15.5082339107
 C        10.4034374983        0.8236561998      -13.4370451244
 C         9.1835908315        1.3757239687      -12.4596631061
 O         9.2893211788        1.3916060456      -11.2636983086
 C         7.9579268252        1.8027329271      -13.2248413447
 C         6.5701565140        1.2307538253      -12.7580463740
 C         5.5624602752        1.2947275997      -13.8733447264
 O         5.8043618189        1.2137473536      -15.0794611994
 C         4.0659405404        1.5727901090      -13.4819525091
 C         3.0544233645        1.2089003708      -14.6762034304
 O         2.4064226373        2.0616710671      -15.2366078163
 C         3.1242801642       -0.2486013918      -15.2654130095
 C         2.4067672885       -0.4843929552      -16.5814831025
 C         3.4275109584       -0.0415907065      -17.7349400854
 O         4.5984828654       -0.1852645281      -17.5417002990
 C         2.9295211330        0.6353369465      -19.0665096256
 C         4.2730112939        0.8310852771      -19.9296984508
 O         4.7336062435        0.0730331624      -20.7810533733
 C         5.1985712092        2.1004244725      -19.5101722448
 C         6.6048546986        1.9862414216      -20.0010245793
 C         7.5151251647        1.5148055044      -18.9868161932
 O         7.3818446454        1.6560345397      -17.7670842235
 C         8.8923142429        0.8064161283      -19.4850675900
 C         8.7614070409       -0.8179931409      -19.1052980108
 O         8.1504153616       -1.1181811965      -18.1035341760
 C         9.6408442015       -1.8177740972      -19.8026511027
 C         9.1058300776        1.0982627174      -20.9280332093
 C        10.0155738658        1.5657558553      -18.6966763363
 C         2.2521532060       -0.6839627244      -19.6675247139
 C         2.0535829139        1.8831165676      -18.8097171766
 C         3.6630264415        0.6947212509      -12.2063028646
 C         3.9877073879        3.0415486449      -13.1021640836
 C        11.5872254943        0.4315279412      -12.4982476746
 C        10.9116077088        2.0763906702      -14.3397809684
 C         8.7829347843       -4.8178313480      -13.4282661620
 C         7.6489777225       -5.2182378107      -15.7419455966
 C         0.7945695776       -5.3639525451      -13.7683243713
 C         0.0399508203       -3.5174968156      -15.4331247850
 C        -4.4684608451       -0.0336286877      -13.5605697629
 C        -2.8308405362        0.9568480415      -11.7896471117
 C        -8.3095814862        0.2426867628       -7.1422911871
 C        -6.6921723061        1.3978316451       -5.4795845340
 C        -7.8161907764       -3.0195312690        0.5405232552
 C        -7.5401356318       -4.5912560270       -1.2780268727
 C       -13.7645455171        0.3944538968       -2.0506251601
 C       -13.7425723049       -0.9930830794        0.0638965028
 C       -16.6734444834       -4.1943258959       -6.1396046090
 C       -18.6366526342       -2.8575981031       -6.9618200774
 C       -22.1078761512       -5.8266232565       -1.1817729639
 C       -20.6961789448       -4.5455628813        0.4675964446
 H       -20.5021695125       -7.8812091552        0.2481235493
 H       -18.9954981792       -8.4577104023       -0.5151536401
 H       -20.4670310031       -8.3005622254       -1.3460330981
 H       -21.9714114565       -4.9095150438       -3.7898471531
 H       -20.5254344329       -5.8136863708       -3.8146766913
 H       -20.3497541383       -2.8248089916       -4.6884843519
 H       -20.6730226455       -4.4594218125       -5.5920710333
 H       -15.3063889105       -2.1666965481       -4.3808327741
 H       -16.4151189852       -3.3765862396       -3.5654447153
 H       -17.5084447930       -1.3229468971       -2.4565783341
 H       -16.3867667183       -0.2858656343       -3.3183916138
 H       -12.4820932676       -4.0689306718       -2.0623943309
 H       -12.5714849572       -3.2012409186       -0.6418381087
 H       -10.3975975985       -1.8345704666       -1.7394348695
 H       -10.6311785188       -3.1791569451       -2.9329220555
 H        -8.4982004532       -2.8842069057       -3.8936502908
 H        -6.8846617573       -3.2857950925       -3.4923148158
 H        -5.9736916511       -1.3216952667       -3.8635412008
 H        -7.3519469310       -0.3819382042       -3.3178293567
 H        -6.7499285419       -0.1661300634       -9.1875832319
 H        -6.2132102905       -1.7777984932       -8.6641854307
 H        -4.0169400483       -1.4358007227       -9.4606378510
 H        -3.9763221804        0.2969895239       -9.3873700396
 H        -0.6875765767       -0.8625596603      -11.5532610986
 H        -0.8911316177       -0.9048485876      -13.1960984549
 H        -1.1639252609       -3.6627523706      -12.8970469577
 H        -0.3246340476       -3.1405260927      -11.3740088456
 H         3.5658010851       -4.9291652408      -13.2792249953
 H         3.7154317668       -3.0662912734      -13.4337660863
 H         4.9960570710       -3.3656137732      -15.2734380021
 H         4.9986996296       -5.2888383373      -15.1000577612
 H         9.4444720024       -1.9854951080      -16.2747884828
 H        10.0403801947       -3.4943117150      -15.6788384237
 H        11.1821421230       -2.1083066933      -14.2056114643
 H         9.5064181898       -2.0089770143      -13.3377828765
 H         8.0582456430        1.6122405291      -14.2825453846
 H         7.9358713979        2.8637217732      -13.0918135718
 H         6.2396089169        1.6368781150      -11.7540344124
 H         6.7850776802        0.2230253453      -12.5002251264
 H         2.9468545432       -0.9912515245      -14.5155424508
 H         4.1722667685       -0.4213203568      -15.4882143886
 H         1.5656816575        0.1719065117      -16.6844960681
 H         2.2609707368       -1.5523458238      -16.7156959274
 H         5.2410565348        2.2987734185      -18.4237406066
 H         4.6715624990        2.9042319935      -19.9452816183
 H         6.9712972727        2.9135063171      -20.4548783965
 H         6.6104709430        1.3471947215      -20.9264119641
 H        10.6392808182       -1.5036165216      -19.6760802960
 H         9.4757715294       -1.9536511907      -20.9072266674
 H         9.3470233002       -2.8331349732      -19.3898168760
 H        10.1003144774        0.8566824654      -21.1843872665
 H         9.1749070869        2.1439285124      -21.0456347991
 H         8.4232134743        0.5666920967      -21.6578734007
 H        10.9717626193        1.1109252125      -18.7948684462
 H         9.7790083222        1.7597586513      -17.6689459675
 H         9.9854507385        2.5786451303      -19.0959096064
 H         3.0590162228       -1.4190155578      -19.7781287502
 H         1.8899156384       -0.6974926887      -20.7327438195
 H         1.4511347291       -1.0301169631      -19.1051842719
 H         2.4027324507        2.4150336320      -17.8807686848
 H         1.0864576310        1.3925205146      -18.6073828606
 H         1.9663791341        2.6847605456      -19.5632823352
 H         3.8680268458       -0.3587362796      -12.4659304649
 H         2.6152677097        0.7168002947      -11.9839762744
 H         4.2528254001        0.7728899754      -11.3219017012
 H         3.1826850710        3.1509897081      -12.4282760452
 H         4.0794535792        3.6837056435      -13.9896886697
 H         4.8058418214        3.3744238005      -12.4532762955
 H        11.9768370041        1.4624630620      -12.2366579378
 H        12.3551416397       -0.1441930179      -13.0076551891
 H        11.2955949201       -0.2418410849      -11.7082628864
 H        10.3629783826        2.2494182008      -15.2022402517
 H        11.9813541470        1.8720722995      -14.3722226395
 H        10.7597951511        3.0528399387      -13.7468180017
 H         8.5276368479       -5.7315428729      -12.9459539377
 H         8.9739359614       -3.9724293496      -12.7622935169
 H         9.6399298831       -5.1145757883      -14.0748151163
 H         7.1923140305       -6.1577966203      -15.4776139626
 H         8.6296825625       -5.3768338296      -16.3167064747
 H         6.9872800513       -4.8901159541      -16.6226277365
 H         1.6827631917       -5.8244943286      -13.3248049522
 H         0.4032091695       -5.9999019557      -14.5454374913
 H        -0.0027072504       -5.3500511310      -12.9989340244
 H        -0.5226684253       -2.6489985552      -15.1248653790
 H        -0.5924971571       -4.3308606131      -15.6529988170
 H         0.5670372951       -3.3932088930      -16.3853796984
 H        -3.7631372820        0.5212144830      -14.2252939254
 H        -5.2470226666        0.6072528768      -13.3867687470
 H        -4.7873110859       -0.8803658308      -14.1393221767
 H        -2.1593506103        0.7598138712      -10.9190492959
 H        -3.3829926367        1.8201709937      -11.6026668352
 H        -2.1173484943        1.2405408720      -12.5666471037
 H        -8.5667924609       -0.7433071873       -7.5108780348
 H        -8.2827186308        0.9810432877       -7.8747481661
 H        -9.0514827159        0.5367301046       -6.3661295063
 H        -7.0875013125        1.2052362622       -4.5332001207
 H        -7.1841346583        2.2385652335       -5.9028151532
 H        -5.6829193826        1.6819776256       -5.4386188556
 H        -8.1962551039       -3.7676236463        1.2639198790
 H        -8.2413092616       -2.1019935813        0.7697630450
 H        -6.7529502948       -2.9891443222        0.6168835752
 H        -7.8199408096       -5.4025909666       -0.6303240821
 H        -6.4959257576       -4.5879989132       -0.9882894676
 H        -7.6720822183       -4.9088145735       -2.3399015710
 H       -14.5985934355        1.0032961961       -1.6807905479
 H       -13.6566079870        0.4283005153       -3.2068692084
 H       -12.9298256730        0.8498397439       -1.6071271685
 H       -12.7162389271       -0.6535057195        0.2740199453
 H       -14.1871676118       -1.8984544187        0.6002970471
 H       -14.2700705029       -0.1078800510        0.5338351977
 H       -17.0213869954       -5.2364290603       -6.4685170396
 H       -15.9572698167       -4.2241129244       -5.3448007909
 H       -16.0838078473       -3.7470208727       -6.9416842657
 H       -18.2049866563       -3.3179454929       -7.7578064246
 H       -18.5425370633       -1.7759522539       -7.2052994881
 H       -19.6602983887       -3.2449345941       -7.0702729696
 H       -22.1274186552       -6.7076807548       -1.9744252938
 H       -22.7929702629       -5.0226551965       -1.4971017785
 H       -22.4805930076       -6.2475538730       -0.2504587692
 H       -20.9602257997       -5.2714694859        1.2727391107
 H       -21.4852848997       -3.7481177111        0.4402916675
 H       -19.7348894851       -4.2157510388        0.7746490398
 Na      -17.6484969085       -3.9281607923       -1.3612747978
 Na        6.9638376206       -0.1435011573      -16.5691319433
