232

 C       -20.0248977731       -7.8799222503       -0.5601834071
 C       -19.4862676959       -6.4654551429       -0.9127972441
 O       -18.3499787584       -6.1518579142       -0.9550499371
 C       -20.5650041479       -5.3681609941       -0.9138801818
 C       -20.2988976893       -4.3293554429       -2.1250824682
 O       -19.7818312546       -3.2909244539       -1.8542756423
 C       -20.8056810502       -4.7256393339       -3.5286295811
 C       -20.2632063117       -3.9875187546       -4.7833756149
 C       -18.7672792750       -4.1952498847       -4.7557679666
 O       -18.1650151950       -4.7793824487       -3.8327585289
 C       -17.8723032620       -3.3453369780       -5.6762694188
 C       -17.3809015509       -2.0000504830       -4.8382112083
 O       -17.8549981543       -0.9477338412       -5.0892047181
 C       -16.3080285867       -2.2176020011       -3.8415829128
 C       -16.3112077090       -1.1368246721       -2.6848307882
 C       -15.3840151392       -1.6407396966       -1.5806544501
 O       -15.6877804370       -2.5594572029       -0.8409509258
 C       -13.9037982900       -1.0038513128       -1.4632463217
 C       -13.0023446575       -2.0243871915       -2.3664307148
 O       -12.9336419300       -1.8440663827       -3.5553967696
 C       -12.1265462408       -3.1183271395       -1.6704325353
 C       -10.6655254452       -2.7023469527       -1.8801511339
 C        -9.7646116022       -3.5594606142       -0.8569292398
 O       -10.2917035671       -4.3110632880       -0.0637601399
 C        -8.2815176107       -3.2648275985       -1.0495370390
 C        -7.9931801282       -2.1207698760       -1.9873366547
 O        -8.2431706348       -1.0171148802       -1.6004432160
 C        -7.4270351466       -2.3706882893       -3.3846351547
 C        -6.9469116903       -1.2041073627       -4.3097375496
 C        -7.4817528317       -1.1898165138       -5.7444775947
 O        -8.0483212809       -2.1261160539       -6.2623183851
 C        -7.0896680863        0.1521292529       -6.5857054706
 C        -5.8128730153       -0.0988302011       -7.3531898653
 O        -4.7530112720        0.3072029541       -6.9396577480
 C        -5.9274249589       -0.7615097882       -8.7042996981
 C        -4.6722678354       -0.6808473381       -9.5037285210
 C        -5.0403292432       -0.5746862000      -11.0642658517
 O        -6.2040089858       -0.5409037989      -11.3978350144
 C        -3.8349446830       -0.2923322070      -12.1428916584
 C        -2.9513520090       -1.6200174501      -12.2562990460
 O        -3.4983784214       -2.6591580381      -12.5277472734
 C        -1.4059410142       -1.3367565495      -12.4232635425
 C        -0.6795302666       -2.6709211984      -12.4341885250
 C         0.7399874592       -2.7267405574      -13.0498352798
 O         1.7697513805       -2.2438877447      -12.6269863323
 C         0.9290500367       -3.8799377665      -14.1801103746
 C         2.4426954847       -3.7917524159      -14.7454596321
 O         2.5709689592       -3.4274071910      -15.9206458069
 C         3.6379605797       -4.0280717152      -13.7782563179
 C         4.9295290356       -4.1647405040      -14.7168620744
 C         6.2138221809       -4.4293378387      -13.7934025121
 O         6.1558698551       -4.5578755288      -12.5846108915
 C         7.6735981875       -4.4180125659      -14.3555426635
 C         7.9783857053       -2.9688361426      -14.8157702803
 O         7.0826456933       -2.1968517113      -15.1580496328
 C         9.4881157581       -2.7158066186      -15.0060417313
 C        10.1899537496       -1.7561266426      -13.9212731480
 C        10.2031654465       -0.3025086933      -14.4602789274
 O         9.7730239648        0.0011951488      -15.5534873715
 C        10.6539256834        0.8964072146      -13.4069051744
 C         9.2481024019        1.2078175787      -12.6921656505
 O         9.1577874643        1.2482303129      -11.4489488381
 C         8.0687749882        1.8018388463      -13.4534183789
 C         6.7038795445        1.7555540907      -12.7214392406
 C         5.5686960883        1.4898764010      -13.7601360157
 O         5.7647968066        1.2115593223      -14.9202824957
 C         4.0510402053        1.5219370376      -13.2702497158
 C         3.0669259813        1.1399052593      -14.5258946985
 O         2.2921128947        1.9432699135      -14.9229723179
 C         3.1617178620       -0.3197597231      -15.0716695950
 C         2.5827250143       -0.4069851498      -16.5115372155
 C         3.6561104894       -0.2055108821      -17.6818144246
 O         4.8725894226       -0.2279372686      -17.5309563302
 C         3.0068222173        0.3553939861      -19.0508728280
 C         4.3082515504        0.7971041644      -19.8082443628
 O         4.7045706019        0.1328614941      -20.7378785028
 C         4.9089019135        2.1236835687      -19.3662140173
 C         6.3884449444        2.2083032807      -20.0011341091
 C         7.4754842122        1.4958232273      -19.0501780075
 O         7.3074054745        1.6283522584      -17.8607771773
 C         8.8158061254        0.8599411265      -19.5342070139
 C         8.8216803232       -0.7397692462      -19.3243863679
 O         8.2544558522       -1.2705898791      -18.3890800199
 C         9.8779493126       -1.5244450193      -20.2470579063
 C         8.8443897242        0.9078733143      -21.1143751657
 C        10.0512312973        1.4962649778      -18.8011560260
 C         2.2192400657       -0.6207005551      -19.9446799817
 C         2.0220991261        1.5780567223      -18.9798683103
 C         3.7686806673        0.4125194499      -12.3624038447
 C         3.5707579661        2.9077574586      -12.7245754756
 C        11.6691903700        0.4329946572      -12.4548795459
 C        10.9499560011        2.1053466880      -14.2891201630
 C         8.6468494467       -4.9347190407      -13.1489921576
 C         7.7213132077       -5.4810955885      -15.5500844959
 C         0.7447259107       -5.2480493241      -13.5789507699
 C        -0.0905293835       -3.6890949626      -15.3482109990
 C        -4.3777734928       -0.1906787248      -13.6094125442
 C        -3.1858102836        1.0175450429      -11.7029634781
 C        -8.3632669837        0.5097202999       -7.4716619231
 C        -6.8500953915        1.3391999736       -5.5468572506
 C        -7.7626654369       -2.8537381969        0.3965893821
 C        -7.7171969284       -4.6328290794       -1.4274413478
 C       -13.8732591005        0.4172199870       -2.1150663154
 C       -13.4329107364       -1.0402407400       -0.0024132729
 C       -16.7140601053       -4.1504513600       -6.2656834858
 C       -18.6286127107       -2.8383808464       -6.9131250916
 C       -21.9996940781       -5.9078259750       -1.1438720320
 C       -20.4544264900       -4.4652283934        0.3605182620
 H       -20.2033651259       -7.8740642979        0.5299395002
 H       -19.4542924267       -8.7407498603       -0.7969716762
 H       -21.1048368206       -8.1160151190       -0.9104709090
 H       -21.9121399788       -4.7793402022       -3.4591177231
 H       -20.5401587136       -5.7919181684       -3.5255102095
 H       -20.4069890383       -2.9191211380       -4.5908911787
 H       -20.7574329595       -4.3898778171       -5.6156518522
 H       -15.3749819064       -2.1962399965       -4.4136744621
 H       -16.4138047072       -3.1533619320       -3.4046532997
 H       -17.3578991988       -1.0278542895       -2.4531742783
 H       -15.9719390519       -0.2190113070       -3.1197715295
 H       -12.3503370283       -4.1822509870       -2.0159081427
 H       -12.3338750944       -3.1374019626       -0.5887459061
 H       -10.4388975588       -1.6634610184       -1.7117704057
 H       -10.3057917417       -3.0321657309       -2.8737944748
 H        -8.2415030046       -2.8644106468       -4.0212512385
 H        -6.6159977692       -3.1054162397       -3.4002086189
 H        -5.8702161464       -1.0648797621       -4.4451462534
 H        -7.2682976485       -0.3144207121       -3.7877652108
 H        -6.6989920551       -0.3139838336       -9.3086168655
 H        -6.3267602167       -1.7092828788       -8.5602903049
 H        -4.1196835145       -1.5833963044       -9.1486500453
 H        -4.1923191481        0.2539509224       -9.1281483363
 H        -1.1422434137       -0.4554441910      -11.7928890017
 H        -1.2211301472       -0.9240611098      -13.4334624787
 H        -1.2620147608       -3.4396964266      -12.9719202683
 H        -0.5223152214       -2.9976839765      -11.3502342003
 H         3.4187540703       -5.0152656978      -13.2795110185
 H         3.6545351565       -3.1310172445      -13.1144567706
 H         4.9704760273       -3.1533540887      -15.0657700506
 H         4.8237565145       -5.0142213301      -15.4735866283
 H         9.5786126201       -2.3512796941      -16.0981510940
 H        10.0444042490       -3.6362766057      -14.8788642054
 H        11.2213886861       -1.9787021926      -13.8408778317
 H         9.6734900438       -1.8399193248      -12.9509729326
 H         8.0610655906        1.3367720087      -14.4993906961
 H         8.1879629068        2.9284934681      -13.7349212608
 H         6.5917813207        2.7170465169      -12.2772719146
 H         6.8592150695        1.1384257718      -11.7664403974
 H         2.6316110794       -0.9917641354      -14.3504719736
 H         4.2229764536       -0.6592420308      -15.1028610934
 H         1.9513957112        0.4657414286      -16.7128439625
 H         2.1349068565       -1.3898118931      -16.6679529624
 H         4.8952467722        2.1987849346      -18.2811686585
 H         4.2772306610        3.0020139568      -19.7658385395
 H         6.6350652629        3.2392600658      -20.2531048080
 H         6.3080012075        1.8510196572      -20.9943374560
 H        10.7760824814       -0.8842487122      -20.4113059610
 H         9.5613437381       -1.9118568025      -21.1655999894
 H        10.1250973769       -2.3867801595      -19.7313405509
 H         9.8068651186        0.6641409017      -21.6044325944
 H         8.7595247212        2.0058095957      -21.4387943650
 H         8.1283514894        0.3012638501      -21.4809544889
 H        10.9170720603        1.0168542664      -19.2547533043
 H        10.1184838657        1.3423461241      -17.7260724457
 H         9.9396715141        2.5524557253      -18.8376703148
 H         2.7823134443       -1.4965885813      -20.1993210671
 H         1.8310497760       -0.2561906470      -20.8842289066
 H         1.2827069132       -0.8815510627      -19.3817209066
 H         2.6243453690        2.3910990738      -18.6710373780
 H         1.1140698318        1.5580325669      -18.3920163477
 H         1.6995450548        1.7567151102      -20.0083437929
 H         3.8406267204       -0.6228619988      -12.6330980846
 H         2.6612965891        0.5075443182      -12.1757624981
 H         4.3794593687        0.3787164181      -11.4192523736
 H         2.4691924763        2.8555748799      -12.8853915944
 H         4.0718242125        3.7078289818      -13.2375568692
 H         3.5977017446        3.0435772632      -11.6511005277
 H        11.9367598539        1.2001672231      -11.8043709466
 H        12.5159905078       -0.0399943038      -12.9064360080
 H        11.2264153401       -0.4454443369      -11.9618720966
 H         9.9636590306        2.4827327020      -14.6831821266
 H        11.7107057567        1.8811051401      -15.0347504298
 H        11.2755471872        2.9019620950      -13.7185134861
 H         8.2872508618       -5.9942154864      -13.1027324922
 H         8.2969860667       -4.4525463712      -12.2461817802
 H         9.7132600645       -4.8873090082      -13.3511247839
 H         7.6873814265       -6.5569797087      -15.2815222665
 H         8.5471480205       -5.3087697677      -16.1737479019
 H         6.9779044361       -5.3372334667      -16.2561221102
 H         1.4396226116       -5.4461766169      -12.7594098116
 H         0.8472306970       -6.0508057699      -14.3639957485
 H        -0.2752778689       -5.3488133630      -13.1908306868
 H        -0.7817152028       -2.9129813282      -15.0688248549
 H        -0.6388783858       -4.6253505438      -15.3925928333
 H         0.3047000330       -3.4656716398      -16.2990842553
 H        -3.6343142756       -0.2680749809      -14.3951418379
 H        -4.9730408290        0.7805702215      -13.7464163250
 H        -5.0329214096       -1.0493450299      -13.8169191090
 H        -2.7893763016        1.0847580867      -10.7123124449
 H        -3.9644868090        1.8271130773      -11.8819942210
 H        -2.3019107220        1.2584748893      -12.3311576599
 H        -8.4631412574       -0.1434729708       -8.3461297366
 H        -8.3423969215        1.5687319274       -7.8161433282
 H        -9.1811401657        0.4085157908       -6.8302709551
 H        -7.7586440605        1.4341620109       -4.8948326019
 H        -6.6738409904        2.2922054112       -6.0692361389
 H        -5.8800046250        1.1932499668       -4.9861829472
 H        -8.4272531579       -3.2014560890        1.1395603817
 H        -7.7072297750       -1.7136128428        0.4928850390
 H        -6.7932808318       -3.3159885873        0.5693989753
 H        -7.6590522219       -5.3872840635       -0.6032818054
 H        -6.6962647666       -4.6237089089       -1.7933583522
 H        -8.3581326921       -5.0454109466       -2.1752973674
 H       -14.2374057755        1.2544153031       -1.4812967743
 H       -14.3857881475        0.3380736997       -3.0413498475
 H       -12.7751518191        0.7054304245       -2.2838874632
 H       -12.4955444074       -0.4642850257        0.0633859045
 H       -13.4579904363       -2.0208556149        0.3445462281
 H       -14.1092901440       -0.5409247695        0.6911366793
 H       -17.1283912552       -4.8360436743       -6.9594102050
 H       -16.0521657633       -4.6038172582       -5.5327605688
 H       -16.0303022017       -3.4924549296       -6.7874996516
 H       -18.5986592265       -3.4888637563       -7.9048539954
 H       -18.2076084621       -1.8681945206       -7.1595401329
 H       -19.6834710080       -2.6416703749       -6.8260145006
 H       -22.1455844141       -6.3769847589       -2.0668372441
 H       -22.7152266659       -5.0696335503       -1.1322972672
 H       -22.2562205582       -6.5630760354       -0.3153078630
 H       -20.6085340188       -5.0979344338        1.2327626419
 H       -21.2102401114       -3.7178724623        0.2513088224
 H       -19.4225592401       -4.0674212971        0.5857138455
 Na      -17.4615704368       -3.9346479499       -1.6171320889
 Na        7.1071267457       -0.2440218138      -16.4895011654
