232

 C       -19.7620521237       -7.8683370300       -0.5245392446
 C       -19.4203240759       -6.4264679750       -0.8039184504
 O       -18.3381180436       -6.0946875725       -1.1473550084
 C       -20.5460133331       -5.2943074062       -0.7862750684
 C       -20.3386004077       -4.3939393738       -1.9896989037
 O       -19.5398806075       -3.5194810713       -1.9564533502
 C       -20.9787631814       -4.7191109371       -3.4217028805
 C       -20.1878966684       -3.9085914486       -4.4862630314
 C       -18.6376592940       -3.9971410339       -4.6228278821
 O       -17.9255503765       -4.7110234698       -3.8766728424
 C       -17.8861598711       -3.1537802121       -5.6561840686
 C       -17.2733766119       -1.8467988359       -4.9102646856
 O       -17.6127446515       -0.7480529611       -5.1617815841
 C       -15.9993538359       -2.0664535906       -4.0412532566
 C       -16.2321388285       -1.2647199507       -2.6596296921
 C       -15.2713532191       -1.7632269687       -1.6385800472
 O       -15.4794714852       -2.7595896347       -0.9765795377
 C       -13.9334313422       -1.0179814868       -1.4346913676
 C       -13.0293234078       -1.9202054234       -2.4569845055
 O       -13.1764150549       -1.8437924735       -3.6434689844
 C       -12.1146081849       -2.9673101366       -1.8695302061
 C       -10.6811172617       -2.4757074690       -1.8484792372
 C        -9.6993833383       -3.3516997113       -0.9081157701
 O       -10.0816315709       -3.9635406848        0.0377832080
 C        -8.1529838779       -3.2428151784       -1.2541511632
 C        -7.8644465823       -2.1626995623       -2.3494876006
 O        -8.1181988682       -1.0469390277       -2.0065269364
 C        -7.2896108092       -2.4220540322       -3.7770083029
 C        -7.0402175191       -1.0716520796       -4.4969428273
 C        -7.5504697169       -0.9719537659       -5.8957789771
 O        -8.0403251674       -1.9344866628       -6.4785689235
 C        -7.2861330457        0.2833974739       -6.6407380994
 C        -5.9057562968        0.0674795531       -7.5638683324
 O        -4.9295372692        0.7271640456       -7.3824430425
 C        -6.0080530405       -0.9965406186       -8.6254003733
 C        -4.8318456976       -0.9791128816       -9.6307697162
 C        -5.2028825252       -0.6123455968      -11.0858848844
 O        -6.3592734199       -0.4833093291      -11.4189942052
 C        -4.0677387916       -0.2378156351      -12.1654810283
 C        -3.0770288194       -1.4706992141      -12.3524136767
 O        -3.5719400680       -2.5688871349      -12.2309699348
 C        -1.4898523998       -1.3697619127      -12.5282362158
 C        -0.8029719978       -2.7976971268      -12.3200760859
 C         0.5555839062       -2.7406729955      -12.9104305075
 O         1.3451832239       -1.9235337549      -12.5132882031
 C         0.9130433740       -3.8762669374      -14.0041778028
 C         2.3190208421       -3.7399592945      -14.6488484950
 O         2.3956824045       -3.3561120547      -15.7599339441
 C         3.5987432936       -4.2124467232      -13.7799185440
 C         4.9463443754       -4.1441761087      -14.6199173077
 C         6.1349016860       -4.4659202477      -13.6045515067
 O         5.8743942255       -4.8855510451      -12.4932777475
 C         7.5968905916       -4.4975722645      -14.0005965486
 C         8.0468777503       -3.1307856585      -14.5498985626
 O         7.2674078924       -2.2717172926      -14.9661231794
 C         9.5171126605       -2.8541009163      -14.7648639494
 C         9.9096416703       -1.6490291174      -13.8740522737
 C        10.1654678624       -0.2257164269      -14.5399178309
 O         9.7616015839        0.0699385005      -15.6360000054
 C        10.6348998599        0.8951438764      -13.5236244545
 C         9.1155251415        1.2216611595      -12.8099307959
 O         8.8500041246        0.7901927810      -11.6773484223
 C         8.0859395589        2.0264532461      -13.7121029416
 C         6.6357988728        2.1964178011      -13.0111534292
 C         5.5464510863        1.4485610996      -13.7515964487
 O         5.8504559014        0.9329889710      -14.8030481817
 C         4.0915617921        1.2443994186      -13.0217731653
 C         3.1269424913        0.9628419555      -14.3418465470
 O         2.2664591541        1.7897248140      -14.5826787046
 C         3.3702132762       -0.3320634814      -15.1631137045
 C         2.6783206754       -0.4318044737      -16.5054188236
 C         3.7971080730       -0.2392525449      -17.5967260432
 O         5.0031407233       -0.4430785990      -17.4000783480
 C         3.1911390331        0.1735307731      -19.0101789667
 C         4.3454660311        0.8036784386      -19.8522905119
 O         4.7936046670        0.3359969576      -20.8656338459
 C         4.8123759288        2.2236697929      -19.4727145224
 C         6.3484404447        2.3740380367      -19.8969846462
 C         7.4398840452        1.4678485476      -19.1200391096
 O         7.2576916763        1.2826813423      -17.9480170660
 C         8.6843248270        0.8654943578      -19.8682184608
 C         8.9153217040       -0.6001846588      -19.5300469216
 O         8.3380865284       -1.0894224707      -18.5717980789
 C         9.7881214052       -1.5708379329      -20.4073367203
 C         8.6867788457        1.2827457241      -21.3917654803
 C         9.9162634884        1.6696952462      -19.2741008486
 C         2.6642654411       -1.0998821365      -19.5174765984
 C         2.1413234773        1.4517111713      -18.9462424091
 C         4.3252034594        0.1561736963      -11.9568603608
 C         3.5823585190        2.5842071786      -12.2607837986
 C        11.5148116516        0.4691794580      -12.3737903209
 C        11.2169451756        2.0632078906      -14.3241698756
 C         8.4297570204       -5.1287844729      -12.8064493874
 C         7.6501471977       -5.4514437239      -15.2774014535
 C         0.8213937423       -5.2512796118      -13.2229135643
 C        -0.2261384313       -3.7977537133      -15.1146318345
 C        -4.8756597871        0.0557300126      -13.5323439261
 C        -3.1911455778        0.9424048758      -11.7822063908
 C        -8.5801339688        0.5076520370       -7.6462510748
 C        -7.1328832108        1.6167786546       -5.8655913685
 C        -7.4882423555       -2.8008600769        0.0666714422
 C        -7.6454694420       -4.6171749209       -1.6867971856
 C       -13.9137440016        0.3644196438       -2.0096984008
 C       -13.5273703247       -1.0830650614        0.0133921020
 C       -16.7366676767       -4.0637233167       -6.1900987299
 C       -18.6810422735       -2.7530194188       -6.9441553186
 C       -21.9625659969       -5.8884429188       -0.7033732681
 C       -20.2807437241       -4.5774892452        0.6380592040
 H       -20.3776224895       -8.0050755146        0.3461055143
 H       -18.8779085271       -8.3473412217       -0.3332770663
 H       -20.3051157944       -8.4492162100       -1.3079883614
 H       -22.0932672667       -4.4693199972       -3.3461916441
 H       -20.9909065732       -5.7786632902       -3.5513286999
 H       -20.4948711342       -2.9070164364       -4.1223008157
 H       -20.6412130244       -4.1172480302       -5.4928807244
 H       -15.1312382946       -1.4930124195       -4.5411773606
 H       -15.7613806517       -3.0406174612       -3.8194266958
 H       -17.2354072005       -1.4584463284       -2.3212155971
 H       -16.0936033801       -0.1765528493       -2.9703091144
 H       -12.1448463547       -3.7224023120       -2.5996415553
 H       -12.5364033434       -3.3088198981       -0.9204384902
 H       -10.5382925509       -1.4246390113       -1.4926799402
 H       -10.1469261680       -2.6172468992       -2.7906174914
 H        -7.9523891834       -3.1064082273       -4.2979191190
 H        -6.3086003454       -2.8895242842       -3.7033022116
 H        -6.0606811831       -0.6837356248       -4.4063889507
 H        -7.6020554767       -0.3406529976       -3.8783422967
 H        -7.0207966032       -1.1707568921       -9.0773907998
 H        -5.9952162261       -1.9052414865       -7.9718438196
 H        -4.5164717653       -2.0211479868       -9.5551754992
 H        -4.1606429087       -0.2720562356       -9.2342808618
 H        -1.1687905342       -0.6661956004      -11.7962191241
 H        -1.3976990473       -0.8565509004      -13.4839178308
 H        -1.3499621513       -3.7223404008      -12.5232099085
 H        -0.7886369623       -2.7948997935      -11.2060242540
 H         3.4537748536       -5.2659414664      -13.4136521221
 H         3.7365322228       -3.5895172769      -12.8697076205
 H         5.1952802829       -3.1452875260      -15.0348432264
 H         4.8505576903       -4.9298974069      -15.4032168215
 H         9.5480013250       -2.5073248778      -15.7607449910
 H        10.1849109813       -3.6649519213      -14.5040120197
 H        10.7988656971       -1.8876564879      -13.2663117883
 H         9.0531058076       -1.4143759454      -13.1365095313
 H         7.9915431509        1.5872637693      -14.6607307960
 H         8.4615287679        2.9735175948      -14.0600544487
 H         6.3235878813        3.2573139086      -12.8962668930
 H         6.7139763598        1.8256048767      -11.9677474498
 H         3.0054107798       -1.1949802283      -14.6052476824
 H         4.3868414893       -0.4411362321      -15.3025616405
 H         2.0054881991        0.4095837284      -16.6564828013
 H         2.2278156424       -1.4162456060      -16.6290348025
 H         4.5800424513        2.5415674462      -18.4644544014
 H         4.2775313697        2.8588358485      -20.1841484778
 H         6.6664238426        3.4721491756      -19.8522728600
 H         6.3633970839        2.2618767773      -20.9777451722
 H        10.8911131782       -1.2064938053      -20.5164192087
 H         9.3793945144       -1.8649749889      -21.3801958779
 H         9.8541058407       -2.5141054829      -19.8944190178
 H         9.4951076576        0.7533652170      -21.9370658718
 H         8.7423768021        2.3895276108      -21.5291134755
 H         7.8527564010        0.9743925904      -21.8812360214
 H        10.8061908813        1.2230845943      -19.7309984094
 H        10.0633202052        1.5814543499      -18.2091047790
 H         9.7535357116        2.7230950347      -19.4353408937
 H         3.4352820053       -1.8917044624      -19.5497260010
 H         2.2952521606       -0.9393782600      -20.4815994959
 H         1.8125462176       -1.5571676608      -18.8921416812
 H         2.3780245311        1.9828411682      -17.9986118974
 H         1.0587840374        1.3255189126      -18.9944173731
 H         2.2210611392        1.9718743885      -19.9411698613
 H         5.0135285709       -0.6405913633      -12.1110134219
 H         3.4659772353       -0.4172396716      -11.6722879955
 H         4.6512353579        0.6988908102      -11.0913619983
 H         2.5275867344        2.8775747693      -12.4744820191
 H         4.1492820522        3.3435619324      -12.7986469161
 H         3.7549926518        2.5723424226      -11.1592042184
 H        11.7632778425        1.3150656548      -11.7487848511
 H        12.4362362529       -0.1466024708      -12.6856220736
 H        10.9234425428       -0.2114816859      -11.6688265620
 H        10.4351829352        2.2645273462      -15.1660583835
 H        12.1252013513        1.7893450016      -14.9033555451
 H        11.4061870977        2.9245400786      -13.7374127920
 H         7.7833017713       -5.9049667495      -12.3688927187
 H         8.5302639590       -4.4140158310      -11.9945402117
 H         9.3374443109       -5.4379231251      -13.2495362271
 H         7.0731189557       -6.4437615303      -15.1971438935
 H         8.6543981559       -5.8412568926      -15.5569548064
 H         7.3045957765       -4.9817103364      -16.2274401898
 H         1.2229836024       -5.1968211494      -12.1969214463
 H         1.3374368230       -6.0145423794      -13.7732428156
 H        -0.1957269254       -5.5280963314      -13.1410414746
 H        -0.9944885777       -3.0710884655      -14.8880644697
 H        -0.7023425275       -4.7681309007      -15.4048388460
 H         0.2999731416       -3.2882028959      -15.9362618380
 H        -4.3706479408        0.3587568595      -14.3624028787
 H        -5.7501994893        0.7345366641      -13.3417854967
 H        -5.2916226652       -0.8884572542      -13.8333942997
 H        -2.4728356621        0.6982298746      -11.0503982849
 H        -3.8088680072        1.7829199224      -11.3695063605
 H        -2.6858323108        1.3062506467      -12.6669762091
 H        -9.1265314304       -0.4147027538       -7.7186657247
 H        -8.2712210652        0.7847625387       -8.7004886452
 H        -9.2079001017        1.2784225390       -7.2625720417
 H        -7.9807096854        1.7854425094       -5.2409259831
 H        -7.1512384109        2.4042765011       -6.5892203304
 H        -6.2449932937        1.6834305729       -5.2969117320
 H        -7.4226994129       -3.5744668877        0.7613565887
 H        -8.0215605440       -1.9585078139        0.5148430083
 H        -6.4827648251       -2.4724862457       -0.2164252591
 H        -8.2431928761       -5.3911828359       -1.2328924359
 H        -6.5525895902       -4.8312825485       -1.5446930070
 H        -7.8636570460       -4.8525428202       -2.7353035894
 H       -14.8625030587        0.8454852334       -1.8332739800
 H       -13.8949999782        0.3015337460       -3.0356451732
 H       -13.0887787016        0.9418777692       -1.4664506714
 H       -12.4329963232       -1.3976980907        0.0733892573
 H       -14.1277502484       -1.8809711356        0.5013442018
 H       -13.8635609940       -0.1537488493        0.5598188251
 H       -17.1354314751       -4.6509348678       -6.9571640615
 H       -16.1359233503       -4.7182734505       -5.4644005730
 H       -15.9824639424       -3.4032380281       -6.7071151280
 H       -19.7982888344       -2.9965235330       -6.7599459985
 H       -18.5541914262       -3.1745072697       -7.8767750869
 H       -18.6223443716       -1.7213704693       -7.1316093348
 H       -22.2198642802       -6.4736233712       -1.5322836313
 H       -22.7591932592       -5.0763150820       -0.8048730900
 H       -22.1543948986       -6.3881759115        0.3138787708
 H       -20.4009714298       -5.2894046221        1.4354649665
 H       -20.8791812025       -3.6940485908        0.6681662170
 H       -19.2321450217       -4.1768019866        0.6653834878
 Na      -17.2863562331       -4.1972570069       -1.6030769604
 Na        7.2860659915       -0.3803319608      -16.4108351597
