232

 C       -19.8223145529       -7.9824837581       -0.4766305918
 C       -19.3721799117       -6.5468927809       -0.8260818584
 O       -18.1716220352       -6.2044668616       -0.9776139674
 C       -20.3867080843       -5.3249488961       -0.7282505570
 C       -20.1012197801       -4.2838459631       -1.8927548531
 O       -19.3660593475       -3.2830726929       -1.6309942400
 C       -20.5984354902       -4.6722139350       -3.2993986442
 C       -20.1036889325       -3.7550986008       -4.4309405859
 C       -18.6159770797       -3.9251011630       -4.6005011390
 O       -17.9819460063       -4.5502114314       -3.7951879199
 C       -17.8469688077       -3.1274110745       -5.7330931533
 C       -17.2726292132       -1.8457266789       -5.0257116353
 O       -17.7949725188       -0.7646464559       -5.2700459045
 C       -16.1519042246       -2.0818743360       -4.0945758942
 C       -16.3833117146       -1.3677437931       -2.7709290630
 C       -15.3785270125       -1.8065994812       -1.7271206297
 O       -15.4418772082       -2.9275247329       -1.1695599678
 C       -14.0795100271       -1.0994330612       -1.4855297576
 C       -13.0341673087       -1.9248798066       -2.4224045578
 O       -13.0453334902       -1.8764445903       -3.6252741277
 C       -11.9725593003       -2.8979369728       -1.8482176098
 C       -10.5683981026       -2.3240818221       -1.9244757768
 C        -9.5660254775       -3.2122959767       -1.0901873159
 O        -9.9492607914       -3.8051276036       -0.1297476034
 C        -7.9901351001       -3.1716433745       -1.4687582635
 C        -7.8144535303       -1.9992468348       -2.4757862336
 O        -8.1768944164       -0.8974416312       -2.0431387010
 C        -7.2961963748       -2.2236730367       -3.8773302577
 C        -6.8970700037       -0.9139230314       -4.6032555828
 C        -7.4848279796       -0.9304802631       -6.0388598850
 O        -8.0394690993       -1.9352463943       -6.4411596044
 C        -7.4029720478        0.3253508350       -6.9484227622
 C        -6.0817887182        0.1453110897       -7.8091875132
 O        -5.1352917668        0.9140615135       -7.7248923937
 C        -5.9415984331       -1.0654607654       -8.6909539912
 C        -4.7982593677       -1.0822446332       -9.7153050039
 C        -5.2902432370       -0.5483889720      -11.0417451795
 O        -6.4686915413       -0.4226314514      -11.3026816742
 C        -4.1981092880       -0.2369738226      -12.0989670107
 C        -3.3605795157       -1.5878148729      -12.1410757643
 O        -3.8388213683       -2.7120576725      -12.0188713977
 C        -1.8175511802       -1.4195088935      -12.5563983639
 C        -0.9332798713       -2.6113939069      -12.2706576335
 C         0.5200420176       -2.6853396074      -12.9792031792
 O         1.3402766940       -1.8453838770      -12.7337439919
 C         0.8619091167       -3.9860991429      -13.8808606369
 C         2.2867548481       -3.7384185387      -14.5096038620
 O         2.4476096942       -3.3050186055      -15.6637593254
 C         3.3922199446       -4.1933298116      -13.5955671504
 C         4.7099969322       -4.0287613952      -14.3156139432
 C         5.8801688922       -4.5262269611      -13.4605210075
 O         5.6691622011       -4.9509393171      -12.3499458968
 C         7.4563077327       -4.6012529089      -14.0399479023
 C         7.8993760097       -3.1111809906      -14.5236054719
 O         7.1031426799       -2.2511593817      -14.8469911061
 C         9.3670735351       -2.8565470989      -14.7050747484
 C         9.9404656000       -1.7455592463      -13.6992429578
 C         9.8766444889       -0.3243127197      -14.3491397620
 O         9.5551543332       -0.2115078902      -15.5259891023
 C        10.3503463841        0.9239072718      -13.5685802755
 C         8.9649280800        1.3654561269      -12.8473621816
 O         8.5352521372        0.6420805172      -12.0167764731
 C         8.1698801117        2.4049257349      -13.6143188369
 C         6.7844459770        2.4256551552      -13.1175448876
 C         5.8463046263        1.3032235804      -13.7251193768
 O         6.1804685798        0.7490426338      -14.7759443095
 C         4.4180212756        1.1683076964      -13.1209014901
 C         3.3801494289        0.8128966130      -14.1273182611
 O         2.3904107775        1.5411632092      -14.3069986355
 C         3.3481317386       -0.5972413701      -14.7945868623
 C         2.7817888537       -0.3890220741      -16.2334812757
 C         3.9057827213       -0.2436487095      -17.3616700222
 O         5.0944040875       -0.4449101368      -17.2861550085
 C         3.3523875036        0.2181844573      -18.8290927593
 C         4.5107426707        0.7952457218      -19.7885367487
 O         4.8540173347        0.3443511444      -20.8653773024
 C         5.1239475921        2.1295839391      -19.3522442696
 C         6.4363142250        2.5004868312      -19.9956680967
 C         7.4284649595        1.6488623502      -19.2819947188
 O         7.0988249256        1.2857013741      -18.1484458459
 C         8.7043296204        0.9433025098      -19.9199556552
 C         8.7162248411       -0.5526598852      -19.6113253417
 O         8.4309984550       -0.9345261883      -18.4999872162
 C         9.4356978020       -1.3688571993      -20.6197687726
 C         8.6802603502        1.0746510488      -21.4034449113
 C         9.8284276279        1.8327797920      -19.3721246392
 C         3.0332983627       -1.1835962308      -19.6037865287
 C         2.0042488226        1.0479950261      -18.9105506222
 C         4.4581784909       -0.1089104032      -12.1973052503
 C         4.0202552399        2.4353659277      -12.3040700522
 C        11.3345905008        0.5031665201      -12.4330243563
 C        10.9613313390        2.1156603911      -14.3569816487
 C         8.5395839776       -4.9198646434      -12.8309644288
 C         7.6317680136       -5.5818948967      -15.1940104102
 C         0.6548893941       -5.2848442167      -12.9983549747
 C        -0.1659607397       -3.9472837529      -15.0126118413
 C        -4.7059764796        0.0254793890      -13.5138946257
 C        -3.4056646095        1.0452420298      -11.5576558971
 C        -8.5452215570        0.4571696336       -7.9292094398
 C        -7.1978845184        1.6132939492       -6.1298816322
 C        -7.1663465544       -2.8858719169       -0.2131589012
 C        -7.6573521349       -4.5899836955       -1.9788977735
 C       -14.0138373520        0.3913391084       -1.8186641029
 C       -13.5511856765       -1.2402683124       -0.0271792931
 C       -16.7070507180       -4.0519366040       -6.3580489110
 C       -18.8180063565       -2.5855744314       -6.6996936995
 C       -21.8087112489       -5.8461869077       -0.7330092028
 C       -20.1958635520       -4.5521941053        0.5799755347
 H       -20.5573626836       -8.0543512182        0.3548713260
 H       -18.9853397985       -8.7210053506       -0.1846356696
 H       -20.3307978226       -8.4023430523       -1.3061090866
 H       -21.6412419423       -4.7921959960       -3.1484502069
 H       -20.2302314906       -5.7188134713       -3.5671267458
 H       -20.2637227675       -2.7014137642       -4.2074215228
 H       -20.7518028988       -3.9650406895       -5.2951198603
 H       -15.2931733869       -1.6739489751       -4.4941582393
 H       -15.9949909004       -3.1710495827       -3.8245755696
 H       -17.3410938545       -1.7422578480       -2.3902621466
 H       -16.4179960506       -0.3349184594       -2.9555138601
 H       -11.9583063882       -3.7722188114       -2.5639643728
 H       -12.2766277546       -3.1742029770       -0.8239017804
 H       -10.4568993253       -1.4026272188       -1.3861842229
 H       -10.0856848099       -2.2373954294       -2.8752085729
 H        -8.1678037870       -2.6322172233       -4.4784999622
 H        -6.4975073695       -3.0013818699       -3.8984008772
 H        -5.7953680862       -0.7617308769       -4.6597774648
 H        -7.1789090545       -0.0834777119       -4.0078712439
 H        -6.8607133568       -1.2357787706       -9.1832019385
 H        -5.9490870759       -1.9359516781       -8.0775795498
 H        -4.5501820559       -2.1329539543       -9.7678176971
 H        -4.0150752439       -0.3854729788       -9.2859697335
 H        -1.4922245275       -0.4632355025      -12.0737547042
 H        -1.9598066978       -1.2033242928      -13.6522535415
 H        -1.5164466682       -3.5548406709      -12.4063127792
 H        -0.7527888992       -2.6693785502      -11.1797386182
 H         3.1586391436       -5.2005571802      -13.2290417463
 H         3.5073670945       -3.6172702524      -12.6343679950
 H         4.9380319079       -2.9812266494      -14.6898407303
 H         4.7204428332       -4.6598743125      -15.2663529490
 H         9.5770217098       -2.4284849493      -15.7251907518
 H         9.9036712032       -3.7775513326      -14.4465247117
 H        11.0271176507       -1.8989341614      -13.5631849735
 H         9.5179851841       -1.7012246018      -12.7293402201
 H         8.1950811212        2.3493023409      -14.7752840488
 H         8.7193527635        3.3876874839      -13.5563253280
 H         6.2079881676        3.3802953904      -13.2109304818
 H         6.9234588660        2.1716659624      -12.0332786702
 H         2.5958842428       -1.1450249016      -14.2315129675
 H         4.3672828259       -1.1031096440      -14.9081362929
 H         2.1774445503        0.5271545622      -16.2923609455
 H         2.2135973633       -1.2470487417      -16.5965853758
 H         5.3818245896        2.1332801603      -18.2591374046
 H         4.3257498650        2.8602649552      -19.5562884415
 H         6.7925226737        3.5039027804      -19.9629772889
 H         6.4555504985        2.2466868199      -21.0676532068
 H        10.3719629383       -1.0038877294      -20.7934583795
 H         8.8785797636       -1.3225478166      -21.5434426310
 H         9.5731603575       -2.4238298390      -20.3466838744
 H         9.6403533848        0.8457663418      -21.7922120279
 H         8.4233367242        2.0698902556      -21.6132385015
 H         7.9179059028        0.4422225370      -22.0569034207
 H        10.8224722313        1.5484224440      -19.7076743297
 H         9.8447712569        1.8621781778      -18.2765694613
 H         9.6375618312        2.8612127790      -19.7716354036
 H         3.8784148019       -1.8756275817      -19.6816064611
 H         2.6110085340       -0.9121091913      -20.6166903150
 H         2.3747398502       -1.7987043910      -19.0679850547
 H         1.9570570156        1.9195444806      -18.3146604894
 H         1.1922861594        0.4962495186      -18.4818431803
 H         1.6608911269        1.0762030183      -19.8743761049
 H         4.6131008058       -0.9598654114      -12.9133769534
 H         3.6573448800       -0.4903934347      -11.5388086094
 H         5.3437806211       -0.1169273637      -11.5324750045
 H         3.1218625044        2.2466005597      -11.7658912992
 H         3.6909949116        3.2578250786      -12.9476200533
 H         4.8630976084        2.5704548148      -11.6353374949
 H        11.9834605677        1.2974656349      -11.9912119852
 H        11.9783246973       -0.2505921198      -12.8206109927
 H        10.8029145309        0.1509010170      -11.5747756715
 H        10.6523575328        2.0775718641      -15.3291858064
 H        12.0212991087        2.0373415156      -14.5270380790
 H        10.7957077934        3.1054237404      -13.8744194294
 H         8.1313705005       -5.7761077785      -12.3676769390
 H         8.4983470155       -4.1407268972      -12.0577349392
 H         9.5446401991       -5.0458576002      -13.2976167262
 H         7.3659839596       -6.5444613528      -14.9444632330
 H         8.6376385317       -5.7629508190      -15.5381951109
 H         7.0353785882       -5.3465490861      -16.0606243503
 H         1.5716265006       -5.3603136864      -12.4082159260
 H         0.5185731105       -6.2002323968      -13.6053087154
 H        -0.1533882129       -5.1676410506      -12.2200333023
 H        -1.1499398141       -3.9097551672      -14.6319134526
 H        -0.1114825216       -4.8504198425      -15.5051070441
 H        -0.0124501863       -3.1138779349      -15.6527920504
 H        -3.8930064340        0.5888057654      -14.1088419778
 H        -5.5946396066        0.5893257224      -13.5816821512
 H        -4.8906062310       -0.8847983505      -14.1315595416
 H        -3.2429916188        0.8288521576      -10.4536326319
 H        -3.8706236482        1.9896328024      -11.6685277385
 H        -2.4347617808        1.0727079933      -12.0699704400
 H        -8.9200270838       -0.4626254611       -8.3452170219
 H        -8.2801118857        1.0997265072       -8.6971922811
 H        -9.3694681882        0.9547508987       -7.3748015268
 H        -7.8837991397        1.7257195594       -5.2724518130
 H        -7.4740801603        2.4725711329       -6.7601993570
 H        -6.1843302875        1.7073336879       -5.7361699442
 H        -7.4368789260       -3.7092350558        0.5123811449
 H        -7.4880237422       -1.9690091465        0.2042352510
 H        -6.1001510065       -2.8480917220       -0.3678748193
 H        -8.0234658691       -5.3302623317       -1.2570298043
 H        -6.5857369228       -4.6407402412       -2.0719712322
 H        -8.0184309287       -5.0084149416       -2.9290301789
 H       -14.7037365866        0.9424300812       -1.1460225619
 H       -14.4688737461        0.5735516545       -2.8595659679
 H       -13.0093768701        0.6614220959       -1.7105161637
 H       -12.6154541482       -0.7418717054        0.0639268107
 H       -13.3777304908       -2.2820162093        0.3593600898
 H       -14.3420773491       -0.7920989426        0.5426644469
 H       -16.9908407601       -5.1374000199       -6.5424866410
 H       -15.9292752258       -4.1150207238       -5.6423393662
 H       -16.3083604753       -3.6553303795       -7.2665330155
 H       -19.4068590423       -1.7981310372       -6.4399174038
 H       -19.5972520278       -3.2964326534       -7.0535696606
 H       -18.2693871321       -2.3360638284       -7.6747915996
 H       -22.0330922453       -6.3631783002       -1.7212468864
 H       -22.5495976842       -5.1071564338       -0.7004528613
 H       -22.0277296211       -6.4936322519        0.0845640724
 H       -20.1380831339       -5.2622238551        1.4473830309
 H       -20.9949761397       -3.7628799007        0.6790614925
 H       -19.3063529207       -3.9491113018        0.4990058831
 Na      -17.1322116067       -4.1897429177       -1.5627738152
 Na        7.3826271722       -0.4820034821      -16.4439135922
