232

 C       -19.7151399281       -7.9066098121       -0.5126683579
 C       -19.2965329176       -6.4803281906       -0.6733298776
 O       -18.0978676071       -6.3778291762       -0.8692790583
 C       -20.2726126923       -5.2976497519       -0.6660722910
 C       -19.9276300331       -4.2886707029       -1.8283251602
 O       -19.3550402746       -3.2298688214       -1.6642964297
 C       -20.5130945795       -4.6548426840       -3.2132721391
 C       -20.0396344290       -3.6840032486       -4.3178407737
 C       -18.5681017080       -3.8319314994       -4.5953416409
 O       -17.8249281217       -4.4452597324       -3.8488776114
 C       -17.9751728242       -3.1784111326       -5.8483019382
 C       -17.3061601634       -1.8453006463       -5.0727251157
 O       -17.7690134708       -0.7735708138       -5.2181439417
 C       -16.1178877489       -2.0620488949       -4.0399696604
 C       -16.4225814444       -1.3864826795       -2.6645125954
 C       -15.3042737761       -1.9105500581       -1.6873636966
 O       -15.4815951621       -3.0288647160       -1.1748444897
 C       -13.9485407035       -1.1017791296       -1.4650713265
 C       -12.9452351390       -1.9532977007       -2.4738979556
 O       -13.0492621958       -1.7099137563       -3.6246684534
 C       -11.9612683713       -2.9400621765       -1.7882804175
 C       -10.6278250474       -2.2736368344       -1.9642129289
 C        -9.5377331811       -3.0503472069       -1.1060114738
 O        -9.8433138035       -3.8258156480       -0.2604730049
 C        -7.9446983987       -3.1039441378       -1.4684304891
 C        -7.7148878722       -1.8730722227       -2.4981772820
 O        -8.0863791325       -0.7581213126       -2.2098160344
 C        -7.2170867424       -2.1872281309       -3.8836408574
 C        -6.9073152548       -0.9163022513       -4.7141253605
 C        -7.5676111679       -0.8921502676       -6.0849917874
 O        -8.0444679985       -1.9678219840       -6.4788471708
 C        -7.3641432281        0.3294341059       -6.9655114990
 C        -6.0034613370        0.0918884063       -7.8387013203
 O        -5.2426012339        1.0258386054       -7.9459111067
 C        -6.0350263036       -1.1863407282       -8.6527637985
 C        -4.9079154128       -1.1290572549       -9.6661921346
 C        -5.3777288804       -0.5726447059      -11.0198472295
 O        -6.5284349759       -0.3247821125      -11.2962619128
 C        -4.1086963684       -0.2692340205      -12.0781130007
 C        -3.2504692826       -1.4922626383      -12.1665264859
 O        -3.8321219601       -2.5556684254      -11.9303947791
 C        -1.7397276387       -1.5136134131      -12.7039520102
 C        -0.9427544609       -2.6585568832      -12.2236660737
 C         0.4194662102       -2.7145344612      -12.9729707185
 O         1.2084587850       -1.8244687712      -12.8112594542
 C         0.6957308860       -3.9969110222      -13.8278286071
 C         2.1069570823       -3.8397997366      -14.4364542972
 O         2.3465859243       -3.3771095462      -15.4733363210
 C         3.4364736268       -4.1967602711      -13.5127167159
 C         4.7850709508       -3.9905971056      -14.2341195702
 C         5.9382942579       -4.5766024881      -13.4062905507
 O         5.7107453521       -4.9712496688      -12.2763978298
 C         7.3724491328       -4.4987010801      -13.9370419427
 C         7.8396101729       -3.1248796472      -14.5181844050
 O         6.9718918170       -2.3224081672      -14.8275592657
 C         9.3329754683       -2.8410428292      -14.7410204434
 C         9.9228303173       -1.8583900406      -13.7299684327
 C         9.9110047028       -0.3651702451      -14.3785244547
 O         9.4192404625       -0.2866814868      -15.4872156889
 C        10.3438020882        0.9028200225      -13.5524047128
 C         8.9164719070        1.3217039501      -12.9298440092
 O         8.3782320333        0.6278021296      -12.0913375455
 C         8.1424656937        2.4954122440      -13.5186683330
 C         6.6769424442        2.6146904444      -13.2295490234
 C         5.9313305071        1.3642511564      -13.7860930465
 O         6.4582621753        0.7089495345      -14.6503497247
 C         4.6105051575        0.9803340597      -13.0797948502
 C         3.3243063643        0.7578622341      -14.0889256099
 O         2.4048569156        1.5876877621      -14.2566041882
 C         3.4386324480       -0.5765472556      -14.9863389124
 C         2.8387323378       -0.3759950538      -16.4087474838
 C         3.8835143263       -0.2364794258      -17.4903179097
 O         5.0445615906       -0.4268361312      -17.1725108487
 C         3.4098656085        0.0568813241      -18.8815493819
 C         4.4022187844        0.8411364692      -19.7342011096
 O         4.8682435017        0.2926226344      -20.7215336197
 C         4.9820176859        2.3092744796      -19.3493584245
 C         6.3443570796        2.4822926677      -19.9858318648
 C         7.3411032394        1.5324587405      -19.2763552261
 O         7.2790661130        1.4058134158      -18.0542289063
 C         8.6138213791        1.0640445589      -20.0176519289
 C         8.8513034925       -0.5307037945      -19.5369688874
 O         8.5418944861       -1.0130985135      -18.4865406551
 C         9.3242103072       -1.4542432467      -20.6612138386
 C         8.6155026375        1.2631338932      -21.6218164934
 C         9.8276634867        1.7785650617      -19.3581911318
 C         3.2788959117       -1.2693740764      -19.5649419852
 C         2.0587042939        0.8492825570      -18.7635896592
 C         4.7260478736       -0.1840880669      -12.0635924563
 C         4.1666174745        2.2819148048      -12.1873967829
 C        11.2828719492        0.5699130190      -12.4175708181
 C        10.9422792438        2.0276691358      -14.4230585383
 C         8.3557841260       -4.9061507871      -12.8342456070
 C         7.5760367606       -5.4990918679      -15.0786317818
 C         0.6013171737       -5.1783198776      -12.9172822701
 C        -0.2691753181       -4.0180900695      -15.0820533288
 C        -4.6841683421       -0.0647437181      -13.5062191899
 C        -3.5201176234        0.9495221776      -11.4485969250
 C        -8.5384090547        0.4585408711       -8.0199119840
 C        -7.2460555045        1.7287986272       -6.2470522650
 C        -7.0318121872       -3.0162164599       -0.2711468575
 C        -7.6581275078       -4.4509913450       -2.1430257984
 C       -13.9627394421        0.3922469907       -1.8597117340
 C       -13.5964504813       -1.2165085550        0.0326564384
 C       -16.8364740488       -3.9894907492       -6.4097753709
 C       -19.0203011108       -2.7025792333       -6.9204340143
 C       -21.7877277740       -5.7351056124       -0.8951634721
 C       -20.1731697864       -4.6222614470        0.7507957828
 H       -20.2225624450       -8.2862633038        0.4117003247
 H       -18.8418459660       -8.5160315176       -0.5895748236
 H       -20.3894608576       -8.1844064299       -1.3468839969
 H       -21.5811190772       -4.5881589143       -3.0313019537
 H       -20.3433104387       -5.6514359771       -3.5380211690
 H       -20.3289060815       -2.6287255849       -4.1440267212
 H       -20.7516187934       -3.9707773096       -5.1559987679
 H       -15.1814286615       -1.4837706888       -4.3719333640
 H       -15.8298806008       -3.0761327783       -3.7695391855
 H       -17.3608711258       -1.7157351597       -2.3037850591
 H       -16.4371952370       -0.2569697715       -2.8431113412
 H       -11.8837557430       -3.8292534766       -2.3680890070
 H       -12.3405469923       -3.1383516704       -0.7452223991
 H       -10.5693796864       -1.2516743431       -1.5848128082
 H       -10.2184069460       -2.3124019818       -2.9422917554
 H        -7.9710412748       -2.7136683055       -4.4556980833
 H        -6.3587815122       -2.8750651825       -3.7925055486
 H        -5.8048750770       -0.7332422060       -4.7945245570
 H        -7.2124500665        0.0200342450       -4.1148987635
 H        -7.0109216531       -1.3538207674       -9.0841185423
 H        -5.9936670732       -2.0816604619       -7.9990971902
 H        -4.5907087845       -2.1764912294       -9.8002614046
 H        -4.1825097218       -0.4580862294       -9.1900229274
 H        -1.4431143025       -0.6116342507      -12.1672515550
 H        -1.6839734723       -1.3142149853      -13.8112776840
 H        -1.5294763975       -3.5515511916      -12.3520360021
 H        -0.7433423719       -2.6891283921      -11.1829246320
 H         3.3753923316       -5.1179196555      -12.9723487736
 H         3.5760735963       -3.5451524673      -12.6469459809
 H         5.0275997626       -2.9031529516      -14.5443827863
 H         4.7950316983       -4.4912641340      -15.2301655836
 H         9.4382676637       -2.2895549506      -15.6638996508
 H         9.9487028903       -3.8043182973      -14.7049006247
 H        10.9224229914       -2.1095103596      -13.4122783303
 H         9.3670793476       -1.7631912555      -12.8395778918
 H         8.2199864248        2.6606329087      -14.6093884106
 H         8.7282398933        3.3624565564      -13.2100554222
 H         6.1495503933        3.5511896848      -13.5794273808
 H         6.6485845070        2.5308691115      -12.1732068985
 H         2.7215687826       -1.3289270175      -14.4695922417
 H         4.4862473225       -0.9279233569      -15.1180327719
 H         2.1549729067        0.4927880460      -16.3922416932
 H         2.3171854953       -1.2849650670      -16.7939902057
 H         5.2122734824        2.4719927390      -18.2507997258
 H         4.2894685163        3.0582425692      -19.7198419165
 H         6.8635035494        3.4471734560      -19.8961899231
 H         6.2648815244        2.2899128634      -21.0734028011
 H        10.2618131003       -1.2114598622      -21.2210350968
 H         8.5197874362       -1.5049515184      -21.3804385942
 H         9.5522271196       -2.4220012173      -20.2660159403
 H         9.6815312018        1.0196586428      -21.8905886755
 H         8.3504862316        2.2764553724      -21.9023439706
 H         8.0213741746        0.6441653904      -22.2402525794
 H        10.7706240546        1.3375238503      -19.7661346533
 H         9.8418693427        1.6764232999      -18.2575202808
 H         9.9272296518        2.8509722204      -19.7016492863
 H         4.1137897784       -1.9911674659      -19.5162915605
 H         2.9753143463       -1.0554909117      -20.5225293490
 H         2.5512690794       -1.8619523798      -18.9863291175
 H         2.3444821006        1.7963441911      -18.3571918621
 H         1.4250986218        0.5874314249      -17.9955633979
 H         1.4015583081        0.8583859251      -19.6108578658
 H         4.8215223613       -1.2205320808      -12.5331189407
 H         3.8091809649       -0.2979333123      -11.4627186210
 H         5.4545464139       -0.0697728980      -11.2691828234
 H         3.2992019751        2.0549186299      -11.5894130942
 H         3.6704719409        2.9580995391      -12.8854016150
 H         5.0141860217        2.6710478098      -11.6599986696
 H        11.6567056206        1.4213334140      -11.8618614861
 H        12.1925465571        0.0951162412      -12.8457633895
 H        10.8198796203        0.0406154973      -11.6470350232
 H        10.4702138091        1.9610236402      -15.4274288295
 H        11.9497250828        1.8506347392      -14.7566510292
 H        10.9439382760        3.0206493194      -13.9860912879
 H         7.9887594154       -5.8484281038      -12.3984723149
 H         8.5139686731       -4.1443954872      -12.0390605703
 H         9.2179515558       -5.0222503745      -13.4296000665
 H         7.5212765715       -6.4840491253      -14.6537052913
 H         8.4603580015       -5.5945837483      -15.6146005995
 H         6.7598670890       -5.5096210631      -15.7643186778
 H         1.4620935257       -5.1730027845      -12.1761415478
 H         0.6135763406       -6.0742011932      -13.5072261856
 H        -0.3231714792       -5.1288937389      -12.3431962902
 H        -1.2298305450       -4.4367118573      -14.8852439457
 H         0.1965616363       -4.7313056661      -15.7828416377
 H        -0.3522533969       -3.0083489182      -15.5274921363
 H        -3.9433850987        0.2934319798      -14.1921433351
 H        -5.5460369412        0.6533109669      -13.5837241430
 H        -5.0750963297       -1.0192776843      -13.9508140589
 H        -3.4337096095        0.7857189311      -10.3630225544
 H        -4.2031001680        1.8024893705      -11.5770152407
 H        -2.5625834930        1.2109944781      -11.9281656791
 H        -8.6603896081       -0.3955805573       -8.6683460210
 H        -8.3835514064        1.3520440881       -8.6790682631
 H        -9.5155992109        0.5910375580       -7.5252536244
 H        -8.2205856962        1.9710237544       -5.7336751295
 H        -7.3500529878        2.4446311557       -7.1194264491
 H        -6.4647381591        2.0019059145       -5.5429981942
 H        -7.4966954216       -3.6193176647        0.5282253663
 H        -6.9341838956       -1.9896255781        0.0520444552
 H        -5.9931228140       -3.4155062163       -0.4772833750
 H        -7.7020050513       -5.2858788491       -1.5422532302
 H        -6.6972064949       -4.3510966460       -2.6514762591
 H        -8.3242049310       -4.7024772906       -2.9861055100
 H       -14.5262377347        0.9429621193       -1.1231173217
 H       -14.4281802036        0.5445551355       -2.8067199598
 H       -12.8836468664        0.6719156087       -1.9077296258
 H       -12.7114129876       -0.7076509032        0.3030265912
 H       -13.3591984981       -2.2082374729        0.2322887130
 H       -14.4141206369       -0.9137130270        0.6143414483
 H       -17.1281045088       -4.9695684189       -6.5549605916
 H       -15.9424101618       -4.0912024431       -5.7577334028
 H       -16.5890822475       -3.5930398117       -7.3790693350
 H       -19.4157392855       -1.6510805511       -6.8583968260
 H       -19.9291409979       -3.2075026225       -6.9547867733
 H       -18.6196180781       -2.8153747119       -7.9207633365
 H       -22.0004876820       -6.3922102565       -1.6548770906
 H       -22.4319094896       -4.8956508390       -1.0033234703
 H       -22.1740780340       -6.2213285104        0.0417656626
 H       -20.3640078197       -5.4342236930        1.4409948046
 H       -20.8930353588       -3.8021046248        0.8912350074
 H       -19.1943446422       -4.1793518466        0.8952093966
 Na      -17.2875832924       -4.3304742341       -1.5935923043
 Na        7.3510763745       -0.4799979109      -16.4306258595
