232

 C       -19.7822259018       -7.9362143931       -0.2577478708
 C       -19.2644339424       -6.5656719617       -0.4929187520
 O       -18.0901194814       -6.4064555986       -0.8344901062
 C       -20.1857642183       -5.3544640770       -0.3387194788
 C       -19.8321255160       -4.3385043550       -1.4539690568
 O       -18.9362114805       -3.5273695498       -1.1967771236
 C       -20.3840968507       -4.4754217209       -2.8681274771
 C       -19.8422675212       -3.4777689424       -3.9077651703
 C       -18.4530651826       -3.7440459683       -4.5146593232
 O       -17.7239381948       -4.6648054386       -4.0641913639
 C       -18.0183553707       -2.9312699021       -5.6981653560
 C       -17.2893529615       -1.5945521186       -5.1256092684
 O       -17.6982091501       -0.4959515035       -5.2351655220
 C       -15.9513140238       -1.8044400173       -4.3266729642
 C       -16.2925391169       -1.5301958426       -2.8447312462
 C       -15.2343655888       -2.0639749518       -1.8622902163
 O       -15.3259777047       -3.1577219014       -1.3635568177
 C       -13.9544475095       -1.2460938924       -1.4692137305
 C       -12.8125138618       -1.7191057526       -2.5228083966
 O       -13.0252777338       -1.5206139027       -3.6837122130
 C       -11.6072321835       -2.4882307447       -2.0012827895
 C       -10.1602357798       -1.9970439809       -2.3077886133
 C        -9.1093768250       -2.9690556553       -1.5137876402
 O        -9.3811195125       -3.4736048262       -0.4673879726
 C        -7.6724718051       -3.0037428195       -2.1035696079
 C        -7.4561417699       -1.5811866366       -2.8498468231
 O        -7.8301986843       -0.5319326110       -2.3663455836
 C        -6.6451743972       -1.4766705161       -4.2270348276
 C        -6.8543507382       -0.1374902135       -5.0876623426
 C        -7.7953474836       -0.3826645142       -6.2337752119
 O        -8.4918200213       -1.3840939937       -6.2714017678
 C        -7.7000555543        0.5606661730       -7.4437888155
 C        -6.5014275110        0.1369598462       -8.3578232920
 O        -5.7121969381        1.0019335034       -8.7885310157
 C        -6.3990785454       -1.2953998010       -8.7059506557
 C        -5.2497479600       -1.4688253200       -9.6788608987
 C        -5.4577724105       -0.7031963799      -10.9398960273
 O        -6.5081347122       -0.1108437065      -11.1255811024
 C        -4.3174807334       -0.3878828852      -11.9062491219
 C        -3.3352430533       -1.6159001769      -12.0218850073
 O        -3.8534721184       -2.7442889394      -11.9199926464
 C        -1.9182418921       -1.3986268263      -12.5781652163
 C        -1.0562861450       -2.6015538368      -12.2951923560
 C         0.2529291753       -2.7471528425      -13.1080187602
 O         1.0068357512       -1.8482723362      -13.1314500383
 C         0.5719560605       -4.2333616939      -13.6824292520
 C         2.0015883442       -4.1797603744      -14.2229093891
 O         2.2349148467       -4.0036527119      -15.4116020670
 C         3.2265071357       -4.3224996317      -13.2393198311
 C         4.5476171653       -4.1745734813      -13.8933905103
 C         5.7418127528       -4.3058821903      -12.9872916254
 O         5.5227299796       -4.4202835017      -11.7924992649
 C         7.1670620174       -4.5656943521      -13.7278350889
 C         7.4956282031       -3.2265936688      -14.6382065793
 O         6.6347480073       -2.5320452925      -15.1210526750
 C         8.9177023310       -2.8378069754      -14.8528759641
 C         9.3858951221       -1.7427363269      -13.8988376319
 C         9.7172175135       -0.3235419921      -14.4998185582
 O         9.7298800450       -0.0504396592      -15.6899764225
 C        10.2089089622        0.7755859451      -13.5301267298
 C         8.8723898928        1.4400686649      -12.9241055922
 O         8.3548391783        1.0109710451      -11.9372525588
 C         8.2958919376        2.6349994904      -13.6968802361
 C         6.7812938829        2.7788349923      -13.2611297225
 C         6.1985622756        1.4211082251      -13.6001501069
 O         6.6113542054        0.8176548403      -14.6281092598
 C         4.9351232075        0.8157207340      -12.8455281768
 C         3.9189199317        0.8037555851      -14.0227284335
 O         3.2922364720        1.8814533834      -14.2312033149
 C         3.8106917833       -0.5850513849      -14.8098904512
 C         3.1985785530       -0.4479112526      -16.1610056628
 C         4.1722542619       -0.4664431317      -17.3647412097
 O         5.3772117535       -0.3176878979      -17.1934143858
 C         3.5560570739       -0.5172153525      -18.8560157551
 C         4.6671344535        0.3068675363      -19.6034242290
 O         5.4436913307       -0.0689344270      -20.4944933467
 C         4.6892161900        1.8504566593      -19.3073655165
 C         6.1316735095        2.4873944961      -19.4964263415
 C         7.3604167982        1.7736489140      -18.8709430625
 O         7.6750232772        1.7792844756      -17.7008849616
 C         8.3856008120        1.1614118405      -19.8350145302
 C         8.1826631073       -0.4679243050      -19.7071141441
 O         8.0364509323       -0.8619560091      -18.5771526271
 C         8.3495784100       -1.3368247201      -20.9343477638
 C         8.2854527039        1.5046152493      -21.3205680493
 C         9.7538791474        1.6800973076      -19.4399934760
 C         3.3624841231       -1.9888818522      -19.3902536274
 C         2.2389060203        0.3152011438      -18.8791875236
 C         5.3128579115       -0.6648066164      -12.4441958620
 C         4.4552796575        1.6864630088      -11.7230589946
 C        11.0355311332        0.2705524485      -12.3311412158
 C        10.9900868398        1.7359161637      -14.3745369101
 C         8.3541541269       -4.6846315370      -12.5752950703
 C         7.0716168289       -5.8077680326      -14.6603031781
 C         0.3870995148       -5.3037063720      -12.5828615961
 C        -0.3361194858       -4.6979017551      -14.8879907552
 C        -4.8851059562       -0.1507592114      -13.2952001411
 C        -3.6588497666        0.9505029671      -11.3484085567
 C        -8.9288689430        0.3543230142       -8.2776163288
 C        -7.5921427982        2.1018023962       -6.9915317712
 C        -6.6703036276       -3.1770970725       -0.9646859059
 C        -7.7272902730       -4.0883424633       -3.2271319054
 C       -14.1352632638        0.2058548361       -1.9395975852
 C       -13.7445686103       -1.2377635789        0.0331264251
 C       -16.8913234862       -3.7824943559       -6.4246786696
 C       -19.0434852560       -2.4557566116       -6.6826024997
 C       -21.6674810595       -5.8242035901       -0.4207937024
 C       -19.9007726163       -4.8086339357        1.1238482239
 H       -20.3928940245       -8.0538628290        0.6337247785
 H       -18.9591344490       -8.6787941352       -0.0741203611
 H       -20.3395320694       -8.2986739909       -1.0710480534
 H       -21.4365051459       -4.5314748282       -2.7865276059
 H       -19.9542976728       -5.4486009081       -3.2106563573
 H       -20.0255643209       -2.4348576580       -3.6044735616
 H       -20.6046466663       -3.3813011329       -4.6887868551
 H       -15.1093635793       -1.2331101062       -4.5976655959
 H       -15.6137368537       -2.9066783243       -4.4278832175
 H       -17.2838298001       -2.1020758488       -2.6158969610
 H       -16.5732074240       -0.5005288749       -2.8027849982
 H       -11.8221074970       -3.4909896240       -2.3198780704
 H       -11.8016232288       -2.6426214184       -0.9787158777
 H        -9.9260137308       -0.9993467525       -1.8874856602
 H        -9.8644333517       -1.8929701503       -3.3750116796
 H        -7.0712108423       -2.2410514064       -4.8672718698
 H        -5.6362424153       -1.7464150937       -4.0839264524
 H        -5.8219914265        0.2033646281       -5.4270502169
 H        -7.2557395112        0.6203088943       -4.3659261527
 H        -7.3732605898       -1.7096672471       -9.1185902505
 H        -6.1766165795       -1.8256475797       -7.7197026027
 H        -4.9613663093       -2.5052127180       -9.8074455240
 H        -4.3997095965       -0.9833270506       -9.1576038348
 H        -1.3959357439       -0.4942772706      -12.3100869126
 H        -2.1149011976       -1.4032093214      -13.6189485134
 H        -1.6236504677       -3.5012095421      -12.4946803984
 H        -0.6423414343       -2.6764680832      -11.2870488662
 H         3.1457460604       -5.2669042874      -12.6784412415
 H         3.1159400930       -3.7103428470      -12.3691783371
 H         4.4612730347       -3.2774859277      -14.4429924737
 H         4.7714359429       -4.6924541127      -14.7966922836
 H         9.0094625502       -2.4554857480      -15.8752660319
 H         9.6273080193       -3.5987292901      -14.8588136949
 H        10.3069702569       -2.0333823425      -13.3719943996
 H         8.7380975272       -1.5784988360      -13.0136915131
 H         8.4196643199        2.6385952219      -14.7722779802
 H         8.7023748034        3.5281994498      -13.3384025055
 H         6.3507142579        3.5745730107      -13.8174153260
 H         6.7798408494        2.8350331949      -12.1540887870
 H         3.1693982392       -1.2407609001      -14.2946856780
 H         4.8818372319       -0.9045520265      -14.9295926762
 H         2.6262416839        0.5199907152      -16.2163428253
 H         2.4483995952       -1.2699745051      -16.3264674330
 H         4.5386270912        2.1148878809      -18.2815977537
 H         3.9024570468        2.3072594492      -19.9384914192
 H         6.1423165287        3.4281420903      -18.8984359163
 H         6.3590757399        2.5766999328      -20.5735826834
 H         9.3555367407       -1.1993140317      -21.2586417751
 H         7.7382147464       -0.8961318355      -21.7827775032
 H         8.1685580314       -2.4426763509      -20.7554781840
 H         9.1018484735        1.0187881296      -21.8129405756
 H         8.4996820363        2.5287627224      -21.5052708871
 H         7.3028240340        1.2405405597      -21.8415012656
 H        10.6123613529        1.2169378910      -19.9586156144
 H         9.8921852100        1.5515212835      -18.3449818161
 H         9.9125949100        2.7436478616      -19.7499782468
 H         4.2850943187       -2.6189436446      -19.4015332184
 H         3.0086201595       -1.9966319197      -20.4624898158
 H         2.5851204746       -2.4107817529      -18.8018174479
 H         2.3767610179        1.3943548122      -18.6576628521
 H         1.4706284810       -0.2807770289      -18.3612152667
 H         1.9407549926        0.4800697502      -19.8778328056
 H         5.6563435811       -1.2102685501      -13.3349768449
 H         4.4870800706       -1.2242326721      -11.9550185950
 H         6.1791130737       -0.8638097691      -11.8016031076
 H         3.7664922493        1.0210088992      -11.1885681627
 H         4.0166620827        2.6398113294      -12.1460648889
 H         5.3162500676        1.9264093234      -11.0759138459
 H        11.7613964964        1.0465910099      -11.9704133066
 H        11.6537209305       -0.6161502501      -12.4132319810
 H        10.3959251406        0.0733482444      -11.4646977115
 H        10.6009079791        2.0105625884      -15.2941637262
 H        12.0320398247        1.3791012393      -14.4789810924
 H        11.1445428982        2.7900104016      -13.9754588348
 H         8.0774429165       -5.4846085828      -11.9560915917
 H         8.4299623765       -3.7289250914      -12.0914392841
 H         9.3641036226       -4.9600644181      -12.9599437502
 H         6.7353800310       -6.7056872579      -14.2652618675
 H         8.0461854227       -6.0141921517      -15.1355547067
 H         6.4536851708       -5.7714078967      -15.5805675396
 H         1.3335011476       -5.2669440738      -12.1080907602
 H         0.4053651156       -6.2840660830      -13.0582268876
 H        -0.4122162428       -5.1555364299      -11.8457594405
 H        -1.3278426136       -4.2221368335      -14.7007035178
 H        -0.4047106691       -5.7852950690      -14.9794616078
 H         0.0737395667       -4.4017647313      -15.9042699570
 H        -4.1014605631        0.4162520926      -13.9095748139
 H        -5.7112833105        0.4749695465      -13.3926925915
 H        -5.1432497307       -1.0639434060      -13.8313601326
 H        -3.4481623855        0.7394743356      -10.2650260856
 H        -4.4411048686        1.6530840288      -11.4152695901
 H        -2.7277417727        1.2467791925      -11.8433577066
 H        -9.3281455401       -0.6841939332       -8.2928967969
 H        -8.7907182904        0.6681965050       -9.2892165493
 H        -9.7929141739        0.9958259660       -7.8985295593
 H        -7.9617719437        2.1457984951       -5.9473619531
 H        -8.1261077143        2.8432712863       -7.6025231150
 H        -6.6051319043        2.5907653210       -7.0086401459
 H        -6.4997977649       -4.2028962080       -0.4696155529
 H        -6.9314206480       -2.4281068783       -0.2432653632
 H        -5.7062636438       -2.8890719930       -1.3937254600
 H        -7.8056426050       -5.0532982027       -2.7066606548
 H        -6.8426830365       -4.2278899373       -3.8032314219
 H        -8.5673165923       -3.9646575471       -3.8875117226
 H       -14.8061413859        0.6489674250       -1.2376957737
 H       -14.4573624190        0.1274946337       -3.0007760868
 H       -13.2918988591        0.7793981693       -1.9310652533
 H       -13.3487141035       -0.3351965431        0.3232258612
 H       -13.2388103633       -2.0782432694        0.5322052633
 H       -14.6849094663       -1.1855995768        0.5209651198
 H       -17.2956962565       -4.7072145412       -6.9169356802
 H       -16.2488972580       -4.1159355736       -5.6548152272
 H       -16.2906181436       -3.2053302140       -7.0885654500
 H       -19.8891763082       -1.9566474990       -6.3481999947
 H       -19.3447160777       -3.2879258555       -7.3060257657
 H       -18.5917583397       -1.6838811370       -7.3300670109
 H       -21.8890914318       -6.5812130958       -1.2269114894
 H       -22.3300394165       -4.9992826419       -0.5614853787
 H       -22.0174348430       -6.3230834071        0.4731049792
 H       -19.9539193702       -5.5579665278        1.9026472604
 H       -20.7393781948       -4.1680343726        1.3573060067
 H       -18.9867551968       -4.3304039297        1.0625108886
 Na      -17.1165005087       -4.6589099281       -1.8802334321
 Na        7.3772003018       -0.4691837415      -16.3126389557
