232

 C       -19.8171277074       -8.0146258028       -0.0827894596
 C       -19.2288080852       -6.6538090544       -0.5370297182
 O       -18.0953717074       -6.5858569317       -0.8323418518
 C       -20.1791242428       -5.3159585625       -0.3567523770
 C       -19.6914441216       -4.2398626173       -1.3585884613
 O       -18.8537544398       -3.4227785776       -1.0755731347
 C       -20.2589553412       -4.4756070791       -2.8360319710
 C       -19.9198001997       -3.4665450526       -3.9778003134
 C       -18.4777554101       -3.7024516397       -4.4917243620
 O       -17.8076853566       -4.5717830834       -4.0232431039
 C       -17.9436701918       -2.8915319310       -5.6535752532
 C       -17.2788946934       -1.6464907797       -5.0579878876
 O       -17.7707238364       -0.5844258708       -5.3878678087
 C       -16.0606042394       -1.8289802029       -4.1281475949
 C       -16.2601836509       -1.5345627122       -2.6719746645
 C       -15.1557875007       -2.1212522680       -1.8443715746
 O       -15.2500921145       -3.3084321044       -1.4664979197
 C       -13.9423167793       -1.1655842868       -1.5041313721
 C       -12.7698306658       -1.7416932434       -2.5068122608
 O       -12.9206314948       -1.4861158362       -3.6651663969
 C       -11.5385684289       -2.5519652739       -1.9396869695
 C       -10.2231607628       -2.0764799897       -2.3819945685
 C        -9.0709431597       -2.7260676958       -1.6416757130
 O        -9.3128114059       -3.4110032733       -0.6705397664
 C        -7.6274049856       -2.7934833702       -2.3162509101
 C        -7.3729797309       -1.4111186952       -2.9039072600
 O        -7.8609205715       -0.4666664226       -2.3285358189
 C        -6.5717959968       -1.4022712793       -4.1660538372
 C        -6.8392251629       -0.1775651504       -5.0473015657
 C        -7.8206660169       -0.4135935232       -6.2285552991
 O        -8.6689060220       -1.2914687141       -6.1884730725
 C        -7.8815572003        0.6235190976       -7.4662941543
 C        -6.5240372672        0.2852267272       -8.3435757717
 O        -5.6838460078        1.0725070631       -8.6296731876
 C        -6.4052087427       -1.2762205708       -8.6996630420
 C        -5.2716224091       -1.5601682637       -9.6981850947
 C        -5.5740059472       -0.7068554041      -10.9709943070
 O        -6.6732659594       -0.2754916986      -11.2083244418
 C        -4.3222987480       -0.3482648481      -11.9657236458
 C        -3.3617674425       -1.6015565849      -12.1322940564
 O        -3.9603074722       -2.6664436042      -11.9240864952
 C        -1.9289702865       -1.4354390529      -12.5599044815
 C        -1.1108460189       -2.7496618797      -12.3082817083
 C         0.1982995731       -2.8364127554      -13.0789279531
 O         1.0164765789       -1.9304228042      -13.2840199398
 C         0.6116734317       -4.2306058935      -13.6355576656
 C         1.9888301826       -4.1763459150      -14.2369230863
 O         2.2308094315       -4.1307379546      -15.3760137064
 C         3.1555991217       -4.3744665351      -13.2406713352
 C         4.4890183235       -4.2191285427      -13.9624214735
 C         5.6789305884       -4.3898603768      -13.0334176403
 O         5.6363284731       -4.1449422834      -11.8593741629
 C         7.1568635761       -4.4555943819      -13.6807230892
 C         7.5247185057       -3.2264270144      -14.5854500133
 O         6.6050200011       -2.6139253390      -15.0992510360
 C         8.9680915462       -2.7399404425      -14.9030831051
 C         9.3109444542       -1.6462021290      -13.8417716379
 C         9.8845115539       -0.3974114577      -14.4481560096
 O         9.6387147928       -0.1010541541      -15.6208566592
 C        10.3406612557        0.7531815721      -13.4909373103
 C         8.9471961960        1.3854452596      -12.8788180835
 O         8.5263299774        0.9116258673      -11.8180022752
 C         8.3485438394        2.6457600474      -13.5458296236
 C         6.7660724716        2.8157941259      -13.3967396816
 C         6.1555620670        1.4460442267      -13.7404866318
 O         6.7798316909        0.7628923202      -14.5101465232
 C         4.9707810380        0.7796275009      -12.9683218270
 C         3.8219568727        0.7439583752      -14.0509918020
 O         3.2497662148        1.7146785524      -14.4275761860
 C         3.5721051099       -0.5611511136      -14.7858154319
 C         3.0410935354       -0.3641606389      -16.2251715719
 C         4.1161644477       -0.5551934549      -17.3468818673
 O         5.3069871507       -0.5617829079      -17.1204387095
 C         3.6338803272       -0.4563898120      -18.7387327318
 C         4.7234913420        0.3917399040      -19.6220565009
 O         5.3930227856       -0.2734313672      -20.3300926171
 C         4.8124864388        1.8970242726      -19.2160175304
 C         6.1085021605        2.7282490138      -19.4820290041
 C         7.3053592274        1.9628406206      -18.9541543726
 O         7.4954368613        1.8137000314      -17.7511811504
 C         8.3644805848        1.1441672586      -19.8871627661
 C         8.1012694981       -0.4148473184      -19.6501433103
 O         7.8845671463       -0.9724784162      -18.6172414026
 C         8.2112543769       -1.3076965718      -20.8348603286
 C         8.2481006000        1.5377337484      -21.4056348940
 C         9.7357977852        1.4369830803      -19.2894896815
 C         3.5491441638       -1.8649946076      -19.3427272564
 C         2.1436391956        0.0786708532      -18.8464101589
 C         5.4978429936       -0.6213100516      -12.4723630983
 C         4.4885702923        1.6590215711      -11.6932003706
 C        11.1794852424        0.2320434382      -12.2883111018
 C        11.1641204680        1.7830005088      -14.3129949902
 C         8.3066962856       -4.6163168122      -12.7109913873
 C         7.1984656664       -5.7061193958      -14.5178646321
 C         0.4699339380       -5.3289895893      -12.5134742507
 C        -0.4626500583       -4.6323876028      -14.8337416869
 C        -4.7725649134       -0.1760105741      -13.4207452101
 C        -3.6480558955        0.8747004283      -11.2850286706
 C        -9.1270832586        0.4919947451       -8.3201590608
 C        -7.6641114962        2.0797697426       -7.0462396319
 C        -6.6019796860       -3.1543833236       -1.2037155214
 C        -7.7464320978       -3.9884912581       -3.3268231943
 C       -14.1343187178        0.3122249570       -1.9887076478
 C       -13.6412665200       -1.2189140352        0.0109322998
 C       -16.9238316541       -3.7711613610       -6.4752208504
 C       -19.0924259984       -2.4356352395       -6.5536947022
 C       -21.6878698706       -5.7891701622       -0.5325090976
 C       -19.8690708489       -4.8475152595        1.0710019405
 H       -20.5110848452       -8.0987334641        0.7826202225
 H       -19.0939759065       -8.7350783112        0.0742220143
 H       -20.3863952846       -8.3707174527       -0.9247644605
 H       -21.3238853451       -4.4918087732       -2.6099678454
 H       -19.8865737685       -5.4746495618       -3.2420274401
 H       -20.0932195444       -2.4397146698       -3.6958724554
 H       -20.7087096810       -3.3900489301       -4.7227207363
 H       -15.1819546440       -1.2279487136       -4.4258455459
 H       -15.7260575721       -2.8086108424       -4.2932982003
 H       -17.2063888657       -1.9629588207       -2.3482153812
 H       -16.4279291038       -0.4228501851       -2.6951223924
 H       -11.7746237398       -3.5667966039       -2.1115454838
 H       -11.6670185596       -2.6102364612       -0.8077214898
 H       -10.1025752498       -0.9799337845       -2.2942584941
 H       -10.0279623774       -2.2508360068       -3.4312348996
 H        -6.7616518529       -2.3174968633       -4.7187769790
 H        -5.5279781493       -1.4736834963       -3.8956090726
 H        -5.8454994170        0.1783933540       -5.3323558146
 H        -7.2744520936        0.5026098180       -4.3600699919
 H        -7.2866106529       -1.6267197787       -9.2289704991
 H        -6.2935239357       -1.8915476096       -7.7657548796
 H        -5.3201578747       -2.6028907120       -9.9946689979
 H        -4.2490546375       -1.4729258590       -9.2487347601
 H        -1.4491566859       -0.7052034390      -11.9452587905
 H        -1.8742387967       -1.0750833160      -13.5694623064
 H        -1.6242656070       -3.7690703221      -12.4600878432
 H        -0.6676155504       -2.7187799800      -11.2876473361
 H         3.1592328122       -5.3037493926      -12.6982491761
 H         2.9164775487       -3.6982456077      -12.3661230919
 H         4.5184539083       -3.3377862676      -14.5783351613
 H         4.6189141322       -4.7870524101      -14.8510025627
 H         9.0754687525       -2.3807367105      -15.8778656500
 H         9.7539929597       -3.5195891785      -14.8667642833
 H         9.8811022746       -2.0004710382      -12.8947088766
 H         8.4078417118       -1.2091837162      -13.3531880365
 H         8.4820629214        2.5228601203      -14.6561388188
 H         8.8651363987        3.5833986391      -13.1779583358
 H         6.4590864590        3.4187488939      -14.2902630918
 H         6.4645845050        3.1318542933      -12.4473103343
 H         2.7883617088       -1.0391980777      -14.2632270086
 H         4.4768417333       -1.1135779887      -14.7835458687
 H         2.5784672378        0.6311721372      -16.3702982025
 H         2.2524741359       -1.0918091657      -16.4155009284
 H         4.5993668514        2.1435497831      -18.1515545178
 H         3.9875640688        2.2793255322      -19.7813001579
 H         6.0923562850        3.5687321337      -18.8364695895
 H         6.2049796173        2.8796208545      -20.5646621259
 H         9.2712062951       -1.4188184491      -21.2563468748
 H         7.6304122156       -0.8478885548      -21.6525103365
 H         7.7988483645       -2.2794547070      -20.5687609410
 H         9.0326477899        1.1444240740      -22.1550726779
 H         8.3698201225        2.6286895227      -21.4516916734
 H         7.3261077623        1.3179891497      -21.7342066160
 H        10.5943894307        0.9523220454      -19.8142940831
 H         9.7670567813        1.1194968875      -18.2311760321
 H        10.0160191587        2.5444776785      -19.3901653644
 H         4.4560640153       -2.5151814785      -19.4707430224
 H         3.1110547985       -1.7958887738      -20.2981236685
 H         2.7075365914       -2.2903660410      -18.7354270049
 H         2.1250909360        1.1862608041      -19.0096383344
 H         1.5048397406       -0.4367098508      -18.1189721329
 H         1.7029409726       -0.1426955949      -19.8498369719
 H         6.2593718159       -1.1193131526      -13.0751940545
 H         4.6766269674       -1.2948861980      -12.3126345608
 H         6.0183986340       -0.5423979315      -11.5635517565
 H         4.2335509607        0.8344692195      -11.0284756388
 H         3.6512273614        2.3177309390      -12.0357613643
 H         5.2526331568        2.2712902894      -11.2051750059
 H        11.7041680042        1.1146453014      -11.8207570880
 H        12.0796764635       -0.3954989895      -12.6416640117
 H        10.7952078212       -0.3902325991      -11.4992288931
 H        10.6113094551        2.2691288165      -15.1492374995
 H        12.1083042930        1.3847424819      -14.6460364092
 H        11.4568169742        2.7246343089      -13.8667732979
 H         7.9682981787       -5.5035410202      -12.1769569176
 H         8.4580567784       -3.7286690650      -12.0559444818
 H         9.2238067615       -4.8982727006      -13.1785780814
 H         7.0729822844       -6.6930788661      -14.0291065378
 H         8.0753944031       -5.7745435218      -15.1902810774
 H         6.4083969782       -5.8324246487      -15.3033821726
 H         1.1735428740       -5.0700482742      -11.7130763731
 H         0.7356709237       -6.2638220859      -12.8849282036
 H        -0.5190449232       -5.2854268913      -12.0990228899
 H        -1.3885778738       -4.0397001291      -14.7269302944
 H        -0.6229081645       -5.7579485855      -14.8952976794
 H         0.0340239705       -4.4482066127      -15.8534107059
 H        -4.0939216884        0.2751478156      -14.0861305879
 H        -5.6545809354        0.4522518213      -13.5594177043
 H        -5.0501312146       -1.1420942179      -13.8450773693
 H        -3.3552469491        0.5627312785      -10.2747681727
 H        -4.3318553504        1.7002498941      -11.2690004826
 H        -2.7396525241        1.0404131050      -11.8176258327
 H        -9.4434446863       -0.5433919391       -8.4074986915
 H        -8.9633434102        0.8641244712       -9.3659663154
 H       -10.0270413792        1.0573346822       -7.9497189567
 H        -8.0375533679        2.3249724298       -6.0558078819
 H        -8.1909863738        2.7281373589       -7.7680245719
 H        -6.7020658254        2.4865236088       -7.1845377192
 H        -6.8982671493       -4.1369726463       -0.7922060912
 H        -6.5841369742       -2.4306813209       -0.4192574739
 H        -5.6011542030       -3.3538281286       -1.6524803943
 H        -7.9633518943       -4.8582460623       -2.8128009983
 H        -6.8322356009       -4.2585148211       -3.8672674654
 H        -8.5548377333       -3.7626142749       -4.0616460934
 H       -14.8523960578        0.8005844526       -1.3742141003
 H       -14.2196334541        0.3484725340       -3.0385392529
 H       -13.1891054488        0.8500696006       -1.6824599341
 H       -13.0212486647       -0.3431800274        0.3402886377
 H       -13.2281587948       -2.1785366242        0.3127895141
 H       -14.5123691073       -1.1268658461        0.7182138123
 H       -17.3560590823       -4.7233724709       -6.5534439999
 H       -15.9443083606       -3.8900760259       -5.8934698752
 H       -16.6439941284       -3.3148125006       -7.4346341116
 H       -19.7750772573       -1.5879406609       -6.1035404506
 H       -19.6759946563       -3.2883861854       -6.7994260092
 H       -18.8275085792       -1.9661868487       -7.4922143369
 H       -21.8414664544       -6.5784916446       -1.2413258862
 H       -22.4528718351       -5.0085191751       -0.7809330382
 H       -22.0756134585       -6.2473893481        0.4741009019
 H       -19.9366893906       -5.6301786952        1.7728675344
 H       -20.6082695864       -4.1095436992        1.3865814280
 H       -18.8729133006       -4.5049480307        0.9720743677
 Na      -16.9917232922       -4.6276055041       -1.9557080895
 Na        7.5024493015       -0.5272860717      -16.2817260148
