232

 C       -19.6467486536       -7.9751881620        0.1638603972
 C       -19.1522328240       -6.6745294878       -0.5360362060
 O       -18.1054110801       -6.6148519307       -1.0966737942
 C       -20.1241258631       -5.3888987886       -0.3046983260
 C       -19.7202963516       -4.3114206589       -1.3837750625
 O       -18.7504970199       -3.5793619323       -1.3119708491
 C       -20.3591700334       -4.3287749224       -2.7329707076
 C       -19.7438985767       -3.2961700605       -3.7035154086
 C       -18.4465852039       -3.6837238079       -4.4458964499
 O       -17.6359314804       -4.5187001180       -4.0374829916
 C       -18.1260591205       -2.8794990741       -5.6681922385
 C       -17.2612737192       -1.5898855845       -5.0737159297
 O       -17.6949632358       -0.4760595039       -5.2845743218
 C       -16.1040495903       -1.9986624448       -4.0800661848
 C       -16.2720296753       -1.5894899057       -2.6138422718
 C       -15.0781784880       -2.1243920618       -1.8035681257
 O       -14.9863700261       -3.2836866637       -1.5395721895
 C       -13.8633308337       -1.1359124407       -1.5048132835
 C       -12.7067742250       -1.6853650435       -2.4709968536
 O       -12.8289166707       -1.4021024543       -3.6300487514
 C       -11.5846432787       -2.5851028297       -1.9953816178
 C       -10.2712110655       -2.2274018954       -2.7033538087
 C        -9.0322130706       -2.7788771545       -1.8889652416
 O        -8.9355409362       -3.2523163009       -0.7827446940
 C        -7.6999182228       -2.6120731373       -2.7122968136
 C        -7.3298967292       -1.2326042566       -3.1899625281
 O        -7.6960043440       -0.2498043304       -2.6079022373
 C        -6.3127032221       -1.0351391627       -4.3827281923
 C        -6.8033866370        0.2117716526       -5.1865858939
 C        -7.9654111567       -0.0552274879       -6.0950012107
 O        -8.7485689953       -0.9556930458       -5.8687827683
 C        -8.0242554471        0.7794640365       -7.5051844100
 C        -6.6945060760        0.2934238873       -8.2033060938
 O        -5.6899520141        0.9568887966       -8.1934699094
 C        -6.7225537778       -1.1375694693       -8.7896734188
 C        -5.5540036185       -1.2737753649       -9.8227961883
 C        -5.7062319134       -0.8197847339      -11.2992211767
 O        -6.7742694137       -0.6894925288      -11.8335987602
 C        -4.3888932781       -0.4052376198      -12.1095447312
 C        -3.4452482813       -1.7004957036      -12.1396112604
 O        -3.9389462170       -2.8439705568      -11.9683587700
 C        -1.9458518383       -1.5929435180      -12.2206870198
 C        -1.2599459899       -2.8646397709      -12.1076063014
 C         0.0606707139       -2.9361281907      -13.0177197271
 O         0.6225722225       -1.9769469904      -13.4906415487
 C         0.4990017700       -4.3557913672      -13.5929246828
 C         1.9640835798       -4.3993934476      -14.1789218427
 O         2.0561096414       -4.3827926052      -15.3454927061
 C         3.1859792742       -4.3612560285      -13.2271486708
 C         4.4736797385       -4.5443706371      -13.9691675174
 C         5.7495328552       -4.1266294720      -13.2056339728
 O         5.5633414205       -3.5221236294      -12.1724931436
 C         7.2842997436       -4.3268817212      -13.6954775511
 C         7.6552856471       -3.0987703762      -14.5651051390
 O         6.8145539197       -2.6382071938      -15.2947819529
 C         9.0692108572       -2.5624953165      -14.5569904343
 C         9.2622764340       -1.3935602758      -13.6759693447
 C        10.0306301110       -0.2399280336      -14.2982488934
 O         9.8233262582       -0.0043677297      -15.4941065754
 C        10.6294370233        0.7868869986      -13.3328284223
 C         9.2568799307        1.4563683730      -12.6710673471
 O         8.6909551812        0.9425135200      -11.7201042012
 C         8.6308265459        2.7103415191      -13.3326258697
 C         7.0842986783        2.5527697300      -13.1898108192
 C         6.4758983381        1.1847356610      -13.6780387864
 O         7.0343848306        0.5881309108      -14.5900244052
 C         5.0908274035        0.7386102924      -13.1534055535
 C         3.9870594134        0.6845258481      -14.2441954005
 O         3.4462241220        1.7499663546      -14.4399403903
 C         3.3624394209       -0.6929122221      -14.7080559059
 C         2.6565585316       -0.6015826084      -16.0196243392
 C         3.8246523219       -0.7155550298      -17.1482432291
 O         4.9321713242       -1.0138585586      -16.7475954178
 C         3.6961965164       -0.6323247018      -18.6409651201
 C         4.6508955370        0.4614907752      -19.2007377356
 O         5.3632453059        0.1576711339      -20.1199748958
 C         4.5952004292        1.9642676204      -18.9823556284
 C         5.9479342606        2.5209487848      -19.4741815370
 C         7.1100368671        1.7546415084      -18.8723512545
 O         7.1050107972        1.6378991815      -17.6697095032
 C         8.2110166190        0.9813733093      -19.7725691786
 C         7.8179192394       -0.6733092402      -19.6931505571
 O         7.5654920309       -1.2572554047      -18.6731221650
 C         7.7923556719       -1.3200341960      -21.0451976159
 C         8.3990256806        1.6456937312      -21.1966506139
 C         9.5891098246        1.0300994578      -18.9968326732
 C         3.9060611185       -2.0188486056      -19.3347866658
 C         2.2893779803       -0.0322114086      -19.2791746399
 C         5.2999373536       -0.6660938531      -12.4170295169
 C         4.5731399274        1.7765035699      -12.1166259515
 C        11.5611132817        0.1512648729      -12.1824956637
 C        11.4424749947        1.7975793678      -14.2029585958
 C         8.2399051558       -4.4953508668      -12.5096637335
 C         7.4169019755       -5.5232918371      -14.6151352435
 C         0.3519930242       -5.4477703970      -12.4603312527
 C        -0.3676979420       -4.9105262360      -14.7712074260
 C        -4.8754373043        0.0705116283      -13.4653509201
 C        -3.6536448268        0.6869653602      -11.2260322445
 C        -9.3103777893        0.4295211618       -8.3362760800
 C        -7.9910511605        2.2137501660       -7.1255843113
 C        -6.5450245953       -2.9554733667       -1.7044999702
 C        -7.7392344333       -3.5261878639       -3.9659613596
 C       -14.0747469052        0.4098504161       -1.8639468521
 C       -13.5814292280       -1.1995905999       -0.0177361746
 C       -17.1409761789       -3.6665376624       -6.5341498919
 C       -19.3507524546       -2.4083631528       -6.4486203276
 C       -21.5835344126       -5.7851029742       -0.3856660358
 C       -19.7699747863       -4.8121052012        1.0939223126
 H       -20.0653425042       -7.7989078715        1.2189026685
 H       -18.8398341354       -8.6942567436        0.2693083900
 H       -20.4471589949       -8.5261424887       -0.3044676002
 H       -21.3551435972       -4.1572327668       -2.5588595411
 H       -20.1413156664       -5.2990757586       -3.1986381109
 H       -19.6329170350       -2.3004067333       -3.2314599654
 H       -20.4878752410       -2.8923840791       -4.4200613219
 H       -15.1676471149       -1.6238763847       -4.4996219623
 H       -15.8528644460       -3.1124146555       -4.1171557251
 H       -17.2646403824       -2.0381363673       -2.2876432972
 H       -16.3432100763       -0.5005128549       -2.5864965190
 H       -11.9097954731       -3.5826070719       -2.2096098577
 H       -11.5750004383       -2.6344225618       -0.9119703201
 H        -9.9906343089       -1.1816605190       -2.9430005008
 H       -10.2145913876       -2.7218141419       -3.6837680076
 H        -6.2263412982       -1.8813580974       -5.0871579182
 H        -5.3323188844       -0.9521452328       -3.9477961087
 H        -5.8643073501        0.5673382634       -5.7293079503
 H        -7.1517112566        0.9385238916       -4.3967423619
 H        -7.6503739130       -1.3694307496       -9.3418180025
 H        -6.5076851067       -1.8626014528       -7.9793516566
 H        -5.2530536368       -2.3054539295       -9.8662334146
 H        -4.6194167083       -0.9103451022       -9.3693460991
 H        -1.5807852616       -0.8294721168      -11.4899697328
 H        -1.6872153661       -1.1906403047      -13.2042886309
 H        -1.8576548332       -3.6997546238      -12.4268612427
 H        -1.0388708141       -2.9884725955      -11.0676932440
 H         3.1598559084       -5.0798270247      -12.3754800289
 H         3.1258124697       -3.3751630551      -12.7389476214
 H         4.4653040171       -4.2040605937      -15.0294049687
 H         4.5980425080       -5.6256488108      -14.2426245406
 H         9.3302565743       -2.2228546303      -15.5920260580
 H         9.7690364000       -3.3776904957      -14.4184297331
 H         9.7343143993       -1.6962818708      -12.7302122015
 H         8.3010224835       -1.0001851511      -13.4118418929
 H         8.8349473059        2.6997447518      -14.4015795930
 H         9.0599794772        3.5051771614      -12.8456926685
 H         6.4853796917        3.1373157433      -13.9448986342
 H         6.7735713901        2.8082832296      -12.1658101301
 H         2.6857182491       -0.9244980392      -13.8695288246
 H         4.1768643671       -1.5124349648      -14.8348423274
 H         1.9436408646        0.2600930215      -16.1450172830
 H         1.9837949780       -1.4801110159      -16.1541131415
 H         4.3108559395        2.3513692224      -18.0018416281
 H         3.8226489504        2.4124329487      -19.6449907844
 H         5.9928472038        3.6172844991      -19.2934337448
 H         5.8548869592        2.2235343278      -20.5490816086
 H         8.7290810056       -1.1230371855      -21.5288977204
 H         7.0413512375       -0.8407103374      -21.6861198453
 H         7.5063246170       -2.3492733814      -20.9955577963
 H         9.3084182418        1.1851139913      -21.6954223769
 H         8.5250650130        2.7248011925      -21.0947836983
 H         7.6218737696        1.4086651659      -21.8233946439
 H        10.1938027284        0.2517630157      -19.4181996764
 H         9.5556291808        0.8052547766      -17.9470386033
 H        10.0484118389        2.0261544829      -19.0330079782
 H         4.9040084985       -2.4262172142      -19.0761292401
 H         3.8439489087       -2.0032235406      -20.4070790938
 H         3.1021379203       -2.6300562106      -19.0158229860
 H         2.0369801374        0.8405186768      -18.6475207598
 H         1.5115110365       -0.7031909412      -19.5243327658
 H         2.4576815118        0.4040005053      -20.2138118812
 H         5.2201021757       -1.5388878984      -13.1572347923
 H         4.4702203790       -0.9679573793      -11.7672167142
 H         6.3272778693       -0.7862597492      -12.0752127548
 H         3.6255465455        1.4741584099      -11.8204094011
 H         4.7892338331        2.8104610847      -12.4082379971
 H         5.1523977063        1.5049349143      -11.2366261178
 H        11.7944305734        0.9106923604      -11.4425329717
 H        12.4504558830       -0.2751674366      -12.5927995199
 H        11.2378274650       -0.7137319812      -11.7539966430
 H        11.0048532192        2.2487046811      -15.0705378483
 H        12.3100931694        1.2790206696      -14.5973292791
 H        11.8525282320        2.7458599731      -13.8057821126
 H         7.8868129433       -5.2281531729      -11.8038984308
 H         8.2313246004       -3.5562637300      -11.9317168034
 H         9.2326954526       -4.7085612706      -12.9511106694
 H         7.0347245795       -6.4016891727      -14.2289895515
 H         8.4073190241       -5.7582043900      -14.9224296748
 H         6.9039072691       -5.4502682480      -15.5538196061
 H         0.2435633515       -5.1326165916      -11.4068638903
 H         1.1448370525       -6.1871168404      -12.6477514776
 H        -0.6187777912       -5.9864289915      -12.6568952400
 H        -1.3303802805       -4.9300848336      -14.3862961912
 H        -0.0378736517       -5.9040175164      -14.9001040838
 H        -0.4149118219       -4.4237367821      -15.7339989964
 H        -4.0042447894        0.0941079602      -14.1835803088
 H        -5.3534392037        1.0357212264      -13.4682211427
 H        -5.5246171904       -0.6049246679      -14.0532930020
 H        -3.2818395256        0.1571980329      -10.2933283122
 H        -4.4354322935        1.3319227798      -10.9341277923
 H        -2.8511891332        1.1837776740      -11.7803493206
 H        -9.3413127544       -0.4937804971       -8.8374634308
 H        -9.4432447094        1.1591054199       -9.0844317482
 H       -10.2230908195        0.5492812430       -7.7252209862
 H        -8.9921631172        2.5405249852       -6.7583137127
 H        -7.7145805013        3.0151154201       -7.8541580984
 H        -7.3008865765        2.2964799079       -6.2939406547
 H        -6.8051344255       -3.6026249673       -0.8129808635
 H        -6.1564421343       -2.1005653513       -1.2364513531
 H        -5.7803588254       -3.4259269840       -2.3315960142
 H        -8.1979049688       -4.4420301808       -3.6375294627
 H        -6.7573435887       -3.8238561589       -4.3594373962
 H        -8.3642606267       -3.0623451174       -4.7717985463
 H       -14.9061162826        0.8440703766       -1.2859888724
 H       -14.2311002738        0.4864015897       -2.9488300727
 H       -13.1524048808        0.9190596807       -1.5835948625
 H       -12.6055904219       -0.8601200670        0.1609924843
 H       -13.7640758079       -2.1433012527        0.4381523440
 H       -14.2363285963       -0.6029375437        0.5515199637
 H       -17.5056630792       -4.6511977982       -6.7947439294
 H       -16.3104286385       -3.7528072325       -5.8437351449
 H       -16.7351829867       -3.1007727585       -7.3357328132
 H       -20.0418550546       -1.6273663508       -6.0329388447
 H       -19.8619005813       -3.2283082352       -6.8218508617
 H       -18.9514143276       -1.9912292823       -7.3718529515
 H       -21.8054903624       -6.1734315919       -1.3322706555
 H       -22.3358757900       -5.0934435091       -0.2081488581
 H       -21.7182155224       -6.5415625775        0.4097301739
 H       -20.3001650813       -5.4518651865        1.8510266781
 H       -20.1247303253       -3.7331418948        1.1092751393
 H       -18.7157224567       -4.9425242885        1.2638762712
 Na      -16.6957213728       -4.8625813356       -1.6418111525
 Na        7.3541317976       -0.4469386288      -16.5898352139
