232

 C       -19.4956014515       -7.9148383102        0.1814198616
 C       -19.1758481077       -6.6271475080       -0.4791250354
 O       -18.1453222437       -6.5617468395       -1.1131893225
 C       -20.1156818212       -5.4392999532       -0.3143578846
 C       -19.6251735591       -4.3953725508       -1.3991469947
 O       -18.6213491198       -3.7632763645       -1.1741952259
 C       -20.4291747542       -4.3034575947       -2.7914316936
 C       -19.7819062405       -3.2435691007       -3.6604442260
 C       -18.4723646182       -3.6881919848       -4.3474301463
 O       -17.7099913816       -4.4876484532       -3.8759169309
 C       -18.0411652817       -2.8575564243       -5.6539542810
 C       -17.2991428881       -1.6493114087       -5.0334463253
 O       -17.6711415607       -0.4920905874       -5.1938633197
 C       -16.0533096005       -1.9586921138       -4.2451000442
 C       -16.1793841050       -1.5373523862       -2.7900314450
 C       -15.0467322771       -2.0996929369       -1.8445914721
 O       -14.9958898144       -3.2663278250       -1.4113157090
 C       -13.9344199367       -1.1787637785       -1.4783424073
 C       -12.7530647152       -1.6581142734       -2.5079691871
 O       -12.9460960298       -1.2923791448       -3.6650537650
 C       -11.5579085543       -2.5709016708       -2.0305636105
 C       -10.2513393730       -2.2833801942       -2.7374132316
 C        -8.9003158523       -2.6653881145       -2.0528601168
 O        -8.9253497918       -3.1424966238       -0.9346277044
 C        -7.5195104346       -2.6127685280       -2.8176249452
 C        -7.3329313840       -1.0840413949       -3.2321922008
 O        -7.8518180937       -0.1785409807       -2.6068409410
 C        -6.3558412212       -0.9034230995       -4.3934078463
 C        -6.7007261841        0.3069261220       -5.1798296384
 C        -7.9196296529       -0.0341194866       -6.1009112273
 O        -8.7619413129       -0.8511472525       -5.7460280955
 C        -8.0429040307        0.8004429379       -7.4116194110
 C        -6.7835203308        0.3645653116       -8.2619153440
 O        -5.7588105707        0.9217836801       -8.0782519048
 C        -6.8310294663       -0.9955677430       -9.1231427937
 C        -5.5197177445       -1.2628489566       -9.8666411045
 C        -5.7368568554       -0.7956021080      -11.2890443036
 O        -6.8174254496       -0.8821986208      -11.8298587215
 C        -4.4329272329       -0.4112373967      -12.0051969126
 C        -3.5449555021       -1.7501291729      -12.0489388446
 O        -4.0886881985       -2.7960149099      -12.0290385041
 C        -1.9691559234       -1.5336488375      -12.1831856112
 C        -1.1508449638       -2.9156618093      -12.1258033447
 C        -0.0644763446       -3.0815996846      -13.1254579477
 O         0.5152766214       -2.0102425817      -13.4760156842
 C         0.4585174305       -4.5845057372      -13.5823217316
 C         1.9182402637       -4.3570327831      -14.1754899018
 O         2.1925328776       -4.4275676536      -15.3610823530
 C         3.1417028047       -4.3281120198      -13.2011991154
 C         4.4536441253       -4.6635737943      -13.9654844419
 C         5.6765032538       -4.0314232448      -13.2360041590
 O         5.4246567867       -3.3825049723      -12.2498330171
 C         7.2664265852       -4.2913950493      -13.7129746327
 C         7.7340423421       -3.1108122291      -14.6244033191
 O         6.9157378895       -2.5820427646      -15.3756481031
 C         9.1829306540       -2.6202281019      -14.6166894825
 C         9.2366823075       -1.3911188417      -13.6150639428
 C         9.9667915862       -0.1463958170      -14.2454931734
 O         9.9175712658        0.0551101693      -15.4450891313
 C        10.6779864633        0.8486625498      -13.2676803850
 C         9.4188830352        1.4845747868      -12.6533038989
 O         8.9119756574        0.9111099604      -11.6859078964
 C         8.5823012474        2.5461938427      -13.4102244931
 C         7.1129501658        2.4447259260      -13.0376309163
 C         6.4788649264        1.2313887316      -13.7491496037
 O         7.1295223487        0.5996100768      -14.5258913622
 C         5.1531419904        0.7677993811      -13.0817946104
 C         3.9166508161        0.7679611499      -14.2304543847
 O         3.5334727420        1.7400164240      -14.7497140229
 C         3.2738789303       -0.6199475372      -14.5858791436
 C         2.7629881771       -0.6899103524      -16.0352500699
 C         3.8400377115       -0.7925014741      -17.0898663195
 O         4.9428057515       -0.9753358565      -16.6440904167
 C         3.5922213140       -0.5934964618      -18.6488455309
 C         4.6034515696        0.3976831613      -19.3229232596
 O         5.3485909956       -0.0361676662      -20.1415180990
 C         4.6604135190        1.9050447257      -18.8585993095
 C         5.9752812423        2.7221015969      -19.3424640504
 C         7.0263672535        1.6604474765      -18.8942575516
 O         7.0645189115        1.4758923521      -17.6629398789
 C         8.1907671690        0.8364851232      -19.6312310968
 C         7.7546889290       -0.6159972662      -19.8268623558
 O         7.5384357082       -1.3502516396      -18.8711307803
 C         7.6983733340       -1.3118470170      -21.2413641174
 C         8.4019667326        1.4642371730      -21.0144571514
 C         9.4875804861        1.0377615368      -18.7771022959
 C         3.9269829084       -1.9166420565      -19.3598266543
 C         2.1281257695       -0.2076298156      -19.2323989725
 C         5.2153490665       -0.6057776944      -12.4034790412
 C         4.7002254208        1.7864011890      -12.0143549855
 C        11.5311337545        0.2942093801      -12.1860287408
 C        11.5192623620        1.8217531082      -14.0970006531
 C         8.2283186357       -4.4818255055      -12.4341312840
 C         7.3932916077       -5.5227573041      -14.6307482395
 C         0.3976581298       -5.4955233862      -12.3265685698
 C        -0.3722594996       -4.9762090676      -14.7994388257
 C        -4.6978734736       -0.0037162690      -13.4943290144
 C        -3.6834986415        0.6598057680      -11.1996052783
 C        -9.3581478403        0.4254267060       -8.2341320317
 C        -8.0737115738        2.3230154147       -7.3180040904
 C        -6.3402446943       -3.0712849399       -1.9463034592
 C        -7.7030860256       -3.5606037543       -4.0913638874
 C       -14.1076108045        0.2847560918       -1.9286346082
 C       -13.6271732260       -1.1947552060        0.0616346376
 C       -17.0817820553       -3.6883084029       -6.6308329277
 C       -19.2881438538       -2.2612513758       -6.4228093104
 C       -21.5564039671       -5.8779319254       -0.2702182635
 C       -19.6619725404       -4.7448218646        1.0780051548
 H       -19.7843780696       -7.9340485074        1.2386018625
 H       -18.7342334247       -8.6212966694        0.0018129576
 H       -20.3926097167       -8.3532483228       -0.3014016766
 H       -21.4371818787       -3.9725066071       -2.5663744652
 H       -20.3581999594       -5.2442347656       -3.3493583117
 H       -19.6830753579       -2.3265026220       -3.0549520496
 H       -20.4679821504       -2.7577709478       -4.3560811416
 H       -15.1834138391       -1.4743761282       -4.7947978823
 H       -15.7680472029       -2.9526861346       -4.2693456027
 H       -17.1601880664       -1.8736550374       -2.4212378319
 H       -16.1636695323       -0.3675270816       -2.7098735038
 H       -11.9162234013       -3.5453977783       -2.1706660884
 H       -11.5173537199       -2.5028344596       -0.8987491517
 H       -10.0448530080       -1.1989694598       -2.9037714403
 H       -10.2425028865       -2.6971649610       -3.7430549123
 H        -6.3600772642       -1.7611293626       -5.0321209449
 H        -5.3921920842       -0.9472715993       -3.9390169253
 H        -5.7492773608        0.5286596483       -5.7384150804
 H        -6.9591807630        1.0937831745       -4.4254044934
 H        -7.5796657744       -1.0743347169       -9.9436718643
 H        -6.9298893163       -1.8400258235       -8.3427169380
 H        -5.2305467377       -2.2839458803       -9.8863584387
 H        -4.6212876646       -0.9047233490       -9.3580519111
 H        -1.6793506353       -0.7555312129      -11.5315226208
 H        -1.8027792386       -1.1460591906      -13.1566330685
 H        -1.9261583850       -3.7342070572      -12.2506398655
 H        -0.7049283236       -3.0037052267      -11.1331804792
 H         3.0073122870       -4.8533371641      -12.2724465759
 H         3.4079809849       -3.2653197489      -12.9639479358
 H         4.3993625230       -4.6042029768      -15.0592624027
 H         4.7628688464       -5.7167563776      -13.9186713619
 H         9.4557392181       -2.3080262846      -15.5693892277
 H         9.8408056158       -3.4826591665      -14.4123048338
 H         9.7485211980       -1.7277160440      -12.6336487941
 H         8.2026308241       -1.1258068386      -13.3742860721
 H         8.7317191093        2.4568675344      -14.4646056571
 H         8.9428049193        3.4953964413      -13.0313508903
 H         6.5751890978        3.4385289844      -13.1789768839
 H         7.1090927613        2.1781720175      -12.0212787551
 H         2.4566784597       -0.7679443731      -13.8767845951
 H         4.0159193039       -1.3582507893      -14.4383702098
 H         2.1914490292        0.2421407360      -16.3022648687
 H         1.9616191770       -1.4512961612      -16.1362187554
 H         4.6211408433        2.0703990778      -17.7467721678
 H         3.7959518360        2.4401391977      -19.1573597516
 H         6.0450404396        3.5226472655      -18.5911917462
 H         5.8482160889        3.0948369002      -20.3868971742
 H         8.6229212636       -1.1404691226      -21.9163880794
 H         6.8590842166       -0.9480782720      -21.8255195291
 H         7.4035030463       -2.3323064948      -21.0954916321
 H         9.2665034767        1.0497789583      -21.5860179979
 H         8.5134103030        2.5319468933      -20.8706020839
 H         7.5544108691        1.2526418136      -21.6067354111
 H        10.2026981460        0.2816602746      -19.1052931145
 H         9.4671681402        0.9280949462      -17.6890031887
 H         9.7791853971        2.0924721504      -18.8962292718
 H         4.9136971592       -2.2814576039      -19.0590089042
 H         3.9430579120       -1.8024778588      -20.3947199651
 H         3.0725437715       -2.6492978033      -19.1759882513
 H         1.7594338912        0.6194350343      -18.6116180384
 H         1.4281656256       -0.9245861714      -19.5783338218
 H         2.3617035363        0.2882112484      -20.2167274318
 H         5.1034528901       -1.5168498518      -13.0157634704
 H         4.3581168666       -0.7523783046      -11.7614523752
 H         6.1943521687       -0.7094587687      -11.9438330804
 H         3.6058571788        1.7801425702      -11.9542046486
 H         5.0898741812        2.6809596219      -12.4676647124
 H         5.0193064451        1.5926189481      -10.9828569406
 H        12.0066548275        1.1244219858      -11.7321583158
 H        12.2107121555       -0.4991672887      -12.5308314325
 H        11.0496824072       -0.3253105133      -11.4491996701
 H        10.9987257305        2.0586949964      -15.1102181537
 H        12.4692037160        1.4328492296      -14.4469648618
 H        11.7077336054        2.8323565650      -13.8583058031
 H         7.7075601084       -5.2692076619      -11.8666526743
 H         8.2409561447       -3.6725835663      -11.6924553302
 H         9.1606399692       -4.7583651670      -12.8105421783
 H         6.9453801442       -6.5449415425      -14.4597634728
 H         8.4162468154       -5.7611390488      -14.8191199718
 H         7.0630236473       -5.2942489099      -15.6151892153
 H         0.7652199542       -5.0458957702      -11.3528342600
 H         0.8385770978       -6.4421754393      -12.5775353075
 H        -0.6676437181       -5.6555669260      -12.1343970337
 H        -1.3537265816       -5.3443935636      -14.5023122694
 H         0.1460630265       -5.7428785569      -15.4350538003
 H        -0.6228381494       -4.0992937975      -15.4055943674
 H        -3.8803696249       -0.0286075040      -14.1388776944
 H        -5.2591932844        0.9804238682      -13.6129257558
 H        -5.3403434555       -0.7342333602      -14.0273054065
 H        -3.2590389581        0.2329561129      -10.2886707582
 H        -4.4402357428        1.4373560471      -10.9296605485
 H        -2.9444796369        1.0512505753      -11.8959762864
 H        -9.3712466332       -0.5832546876       -8.6115478984
 H        -9.5052292252        1.0798429347       -9.1507568080
 H       -10.2552707073        0.6052808551       -7.6551638771
 H        -9.1350432793        2.6655101315       -7.1946015037
 H        -7.8002318872        2.8427353686       -8.2838546420
 H        -7.4695739704        2.7539559495       -6.5109455834
 H        -6.4644338901       -3.9434003408       -1.3280891712
 H        -6.1430760087       -2.2889491628       -1.1705297502
 H        -5.4473471923       -3.1479757957       -2.6439037883
 H        -8.1781565268       -4.4470333422       -3.7727726065
 H        -6.7589963187       -3.7859554477       -4.6118461171
 H        -8.3812534082       -3.0634163799       -4.8163286652
 H       -14.8268460956        0.6893445502       -1.2516631979
 H       -14.3896913044        0.4683639845       -2.9014593302
 H       -13.0800744621        0.7358120671       -1.6871678843
 H       -12.8213481101       -0.5286977078        0.3301726151
 H       -13.3569846956       -2.1284456337        0.3872010950
 H       -14.4716856265       -1.0580769435        0.6728020576
 H       -17.6770199396       -4.2509319145       -7.2365910839
 H       -16.2937529946       -4.2792266970       -6.0956208493
 H       -16.5207523976       -2.9402100547       -7.1970273108
 H       -19.9948766881       -1.7429895211       -5.7004599106
 H       -19.8133560622       -3.0469345110       -6.9295038520
 H       -19.0277840192       -1.5410961743       -7.1652455105
 H       -21.8389932237       -6.3674043036       -1.1402252645
 H       -22.3299391047       -5.0942090397       -0.1762157628
 H       -21.6705323772       -6.4762895578        0.6498686881
 H       -20.0127358944       -5.3453941601        1.8745427563
 H       -20.1086879795       -3.7744747881        1.0022950686
 H       -18.5676206699       -4.6917726340        1.1709271277
 Na      -16.7062314981       -4.8948605836       -1.6256399117
 Na        7.2485687409       -0.4565814732      -16.5860878809
