232

 C       -19.4070319904       -8.0773813735        0.2575393231
 C       -19.0047084179       -6.7675813447       -0.3810051657
 O       -17.9814939364       -6.7437478568       -1.0281600666
 C       -19.9405780655       -5.4430219491       -0.1956332926
 C       -19.5769862388       -4.3715141309       -1.3333012155
 O       -18.5765756178       -3.6870827624       -1.2170599127
 C       -20.5169072649       -4.2947067008       -2.5575864418
 C       -19.9853613312       -3.2454110635       -3.6267184567
 C       -18.5381631251       -3.5575142187       -4.2845335327
 O       -17.7533188333       -4.4457749937       -3.8884551058
 C       -18.0728005293       -2.7423291372       -5.6169696888
 C       -17.1346574206       -1.6469867727       -5.0516633264
 O       -17.5623488520       -0.5130472534       -4.9274840181
 C       -15.7835696075       -1.8581027951       -4.4088170846
 C       -16.1771119719       -1.6841835303       -2.8771180562
 C       -15.0838773081       -2.0847316636       -1.8509321831
 O       -15.1561506853       -3.1132519036       -1.1868186634
 C       -13.9249353791       -1.2128725266       -1.5395823114
 C       -12.5942103534       -1.5421730225       -2.5679155811
 O       -12.7437786081       -1.4505175891       -3.7328268122
 C       -11.3461779596       -2.2976660025       -1.9652008660
 C       -10.1835900755       -2.1172271149       -2.9060237020
 C        -8.9194281049       -2.6484674074       -2.2128911551
 O        -8.9844749622       -3.0064511799       -1.0735403726
 C        -7.5863512280       -2.6045085897       -3.0870403905
 C        -7.3743010761       -1.0935668957       -3.4513314417
 O        -8.0001757966       -0.2838508273       -2.8085519800
 C        -6.2062639324       -0.4694547605       -4.2951946365
 C        -6.6969645118        0.7203186572       -5.2229475938
 C        -7.9039528531        0.2539164737       -5.9946495768
 O        -8.7154575720       -0.5655733567       -5.6428087463
 C        -8.2089711307        0.8686531777       -7.4423582276
 C        -6.9686378520        0.3837665530       -8.3323013304
 O        -5.8486948196        0.8438298821       -8.0878587019
 C        -7.1878220115       -0.7795505027       -9.2490726244
 C        -5.8575368844       -1.2410507367       -9.8602646427
 C        -5.6670310677       -0.8789378953      -11.3671142513
 O        -6.6367655376       -1.0111206701      -12.0718055053
 C        -4.3631434241       -0.4932755243      -12.0415435282
 C        -3.4470021466       -1.8275706776      -12.0085879418
 O        -4.0738594675       -2.9087157946      -12.0877861204
 C        -1.8475564015       -1.7426906459      -12.1978849366
 C        -1.2334168457       -3.1614147062      -12.2875069372
 C         0.0031424538       -3.1211018436      -13.1033988037
 O         0.3811314351       -2.1643773125      -13.6974338506
 C         0.5335862350       -4.5709770876      -13.5092041279
 C         1.9638064787       -4.4545454004      -14.1950719580
 O         2.0966297986       -4.4335405136      -15.3809776094
 C         3.1171935362       -4.2658145027      -13.2298648485
 C         4.4835691815       -4.7737865044      -13.8287240864
 C         5.7295860118       -3.9038223158      -13.3434118346
 O         5.6336352854       -3.2061871736      -12.3471634668
 C         7.2343490070       -4.3532021349      -13.8135684019
 C         7.6948107420       -3.1054394434      -14.6287496921
 O         6.9605961209       -2.6021986656      -15.4325141409
 C         9.1728353315       -2.5988580014      -14.4253001981
 C         9.5343706103       -1.4136613395      -13.5197190284
 C        10.1607231936       -0.2595467771      -14.2807360926
 O         9.8839153666       -0.0123785585      -15.4549582928
 C        10.8622148626        0.8494460075      -13.2820552185
 C         9.5168242016        1.4342190031      -12.6240060797
 O         9.1882336609        1.1762080827      -11.4956619620
 C         8.6958563198        2.4510183675      -13.3664744721
 C         7.1635025253        2.4679594504      -12.8891558961
 C         6.3091245417        1.4072595556      -13.5388332942
 O         6.8171238900        0.6208044935      -14.3486966349
 C         4.9544287053        1.0231666395      -13.0790455496
 C         4.0097966692        0.8446002072      -14.3712560140
 O         3.9658963897        1.7603719405      -15.2056719939
 C         3.1748301128       -0.4431160509      -14.6501216112
 C         2.6852071545       -0.4933229459      -16.1229544916
 C         3.8107424396       -0.6447495467      -17.1572188303
 O         4.9383686437       -0.8052453308      -16.7789742118
 C         3.4460781449       -0.6980979256      -18.6376095867
 C         4.4372846760        0.4071572670      -19.2691320554
 O         5.1912276144        0.1207936951      -20.2227470607
 C         4.5028053048        1.8013100617      -18.7707245601
 C         5.8897340660        2.3454557054      -19.2232740846
 C         6.9609680060        1.4553744814      -18.6138747812
 O         7.0629750280        1.2827077815      -17.4495555429
 C         8.1037840804        0.8013624724      -19.5440953956
 C         7.7361159386       -0.6808690707      -19.8566888025
 O         7.5472787324       -1.4268988995      -18.9148780518
 C         7.6799784214       -1.1487801972      -21.2384589509
 C         8.3586433381        1.6665159146      -20.8586494104
 C         9.5028303804        0.6996218486      -18.7784264318
 C         3.8343625259       -2.1589059566      -19.1337901699
 C         1.9977807307       -0.3373921298      -18.7803707413
 C         5.2906658842       -0.4973110524      -12.3138979793
 C         4.2346501416        1.9128051730      -12.0929058655
 C        11.8395244604        0.1462389731      -12.1868883024
 C        11.5457657403        1.9606765041      -14.0744218338
 C         7.9626625263       -4.4977423026      -12.3913358668
 C         7.2181928251       -5.6028264749      -14.6236465487
 C         0.5124600037       -5.6534317715      -12.3691052431
 C        -0.5459636854       -5.0849293628      -14.6350111624
 C        -4.5256692120       -0.0931883083      -13.4958446734
 C        -3.7476875386        0.7698614810      -11.3280050845
 C        -9.5363571042        0.2740033805       -7.9592856741
 C        -8.1286248409        2.4337659015       -7.5061835550
 C        -6.3081847744       -3.0874124736       -2.2680423415
 C        -7.7262567448       -3.4903791863       -4.3799808576
 C       -14.1844072726        0.3399040286       -1.7036708515
 C       -13.4724595485       -1.4246007682       -0.1342722985
 C       -17.1722422628       -3.7844079780       -6.5306388205
 C       -19.1844725967       -2.1395113450       -6.4278562062
 C       -21.4264814505       -5.8006082925       -0.2008004306
 C       -19.6623051360       -4.8223388576        1.1872201870
 H       -19.4145461413       -7.9042589508        1.3458687485
 H       -18.6657964180       -8.8454049071        0.0267908112
 H       -20.3685167946       -8.4906657976        0.1142383943
 H       -21.5640119895       -3.9886041861       -2.3094211949
 H       -20.4123638071       -5.3074197871       -2.9953463968
 H       -20.0005647217       -2.2662870120       -3.1391459226
 H       -20.7287215052       -3.0262787219       -4.4040860029
 H       -15.0774415871       -1.1317327476       -4.6689975838
 H       -15.2519485895       -2.8627873597       -4.5706365193
 H       -17.1318767624       -2.2105923915       -2.6480369987
 H       -16.3828021634       -0.6862094955       -2.7356297368
 H       -11.6596399110       -3.4229311930       -1.9692062381
 H       -11.1140338062       -2.0891862043       -0.9275259996
 H       -10.0072935054       -1.1509719150       -3.3419256870
 H       -10.2723465940       -2.8295248697       -3.7441645118
 H        -5.7184845556       -1.2862883465       -4.8696676363
 H        -5.4635061525       -0.1954762213       -3.5141427543
 H        -5.9073281202        1.0679906611       -5.8326936524
 H        -6.9959233614        1.4725398985       -4.5447449238
 H        -7.8373953824       -0.4505724281      -10.0562307831
 H        -7.5884471622       -1.5629294226       -8.6993553600
 H        -5.6403848547       -2.3383539886       -9.7546204517
 H        -5.0253455067       -0.9786554543       -9.1943040247
 H        -1.4216105534       -0.9861708358      -11.4824894319
 H        -1.7205854478       -1.2683859801      -13.2073408883
 H        -2.0419155169       -3.6456960187      -12.7994915360
 H        -1.2657282222       -3.5912935323      -11.2577665898
 H         2.9009749032       -4.8744079151      -12.2955212670
 H         3.3326987773       -3.2124026610      -13.0567029102
 H         4.5526005341       -4.9985750162      -14.8942078178
 H         4.6789276780       -5.7806115834      -13.4057016925
 H         9.5071617261       -2.3982440882      -15.5059823139
 H         9.7402328874       -3.4627143818      -14.1159586523
 H        10.0997007827       -1.8644103506      -12.7491876509
 H         8.6069683574       -0.9335142161      -13.0978171609
 H         8.8269273656        2.1541022793      -14.4735172159
 H         9.0140001476        3.5095717253      -13.1977375958
 H         6.8606445620        3.4741145895      -13.0880748192
 H         7.0193333744        2.3329479908      -11.7630720184
 H         2.2766068269       -0.3525084738      -14.0507398878
 H         3.7024319790       -1.3621238935      -14.2330566019
 H         1.8707246496        0.1819225653      -16.3238645827
 H         2.1119882288       -1.4164147292      -16.1860042279
 H         4.4103543999        1.8350246685      -17.7191964646
 H         3.6636748529        2.4765747354      -19.0991278953
 H         5.9677176155        3.4142413066      -19.0467079883
 H         5.8774031817        2.2343020543      -20.3034016594
 H         8.6422631144       -0.9578590600      -21.5946621797
 H         6.9780119351       -0.6043315272      -21.9089957929
 H         7.3487917615       -2.1987851249      -21.3249568493
 H         9.1407059954        1.1612563233      -21.4479914780
 H         8.7395213506        2.6339554008      -20.4919623771
 H         7.5370328035        1.7830653611      -21.5409561759
 H        10.2897611273        0.3052047211      -19.4179266976
 H         9.5202591368        0.0129931830      -17.9241261635
 H         9.6614374665        1.6377716588      -18.2624798482
 H         4.9336109832       -2.3258744898      -19.1066985623
 H         3.5137697561       -2.1269438188      -20.2255708394
 H         3.2966019819       -2.9547163335      -18.6941180313
 H         1.9090212694        0.7277797896      -18.3961094464
 H         1.3799759140       -1.0222079861      -18.0855691811
 H         1.5392560838       -0.5980269063      -19.7088756385
 H         5.9935412636       -1.0928228803      -12.8629299267
 H         4.4624866528       -1.1684917503      -12.3913864484
 H         5.6216092627       -0.3769241737      -11.3085010461
 H         3.7435241544        1.2144317760      -11.4156817212
 H         3.5209440767        2.6030655930      -12.6268100438
 H         4.9876691812        2.3855613526      -11.4491399175
 H        12.6971067335        0.7929446618      -11.8202325995
 H        12.0704654438       -0.8816171544      -12.4223082259
 H        11.2576112105       -0.1203221968      -11.2846985438
 H        11.1199212729        2.3373682805      -14.9166209246
 H        12.5451837120        1.7954362972      -14.4314347957
 H        11.6519696705        2.9094563924      -13.4971883127
 H         7.5928526937       -5.2243594856      -11.7349106905
 H         7.7103711807       -3.6206433814      -11.8464183544
 H         9.0483712082       -4.5224796343      -12.6221336419
 H         6.9415324889       -6.4611364569      -14.0725172262
 H         8.1454202876       -6.0114615118      -15.1275596612
 H         6.4727555601       -5.5700408283      -15.4851914288
 H         1.3583777049       -5.6145945479      -11.7586725808
 H         0.3730596192       -6.6722773156      -12.7341864376
 H        -0.2929442970       -5.4663777433      -11.6662999328
 H        -1.2802348271       -5.6598590412      -14.0442519815
 H        -0.0713752908       -5.7784514070      -15.3434728022
 H        -1.2037539486       -4.3456862182      -15.1800887996
 H        -3.5231137189        0.1260563432      -13.9600303955
 H        -5.1793130991        0.6724591222      -13.6387971650
 H        -4.8802912764       -0.8321810605      -14.1649836935
 H        -3.5149817197        0.3657794691      -10.3451204844
 H        -4.4248166192        1.5716368987      -11.2816142977
 H        -2.8746061535        1.0710248348      -11.8898314301
 H        -9.5912506594       -0.7981849387       -7.6549083495
 H        -9.5803733158        0.2235525722       -9.0215108364
 H       -10.4756364098        0.7963628314       -7.6293159917
 H        -8.7773623637        3.0866700632       -6.9779063562
 H        -8.2273318509        2.7528298137       -8.5167026163
 H        -7.1166725686        2.6270804885       -7.1710577767
 H        -6.2882468077       -4.1976186896       -2.4315630477
 H        -6.5181039099       -3.1153276128       -1.2349739337
 H        -5.3668582960       -2.6190972670       -2.4583706529
 H        -8.0438391319       -4.5199538375       -4.0561449850
 H        -6.7671107290       -3.4137195714       -4.8672633195
 H        -8.4446836603       -3.1577881259       -5.1153118417
 H       -15.2014719906        0.5672377569       -1.3504706024
 H       -14.2505176872        0.4989792930       -2.8232978773
 H       -13.3898197224        0.8859036616       -1.3349915427
 H       -12.9153632432       -0.5551918336        0.2600796737
 H       -12.8146834216       -2.3043194056        0.1872594302
 H       -14.3708385330       -1.6424848125        0.5233352538
 H       -17.8224901661       -4.1220194687       -7.4061125063
 H       -16.9623858023       -4.6201195658       -5.8877973625
 H       -16.2454804924       -3.3369832558       -6.8822954114
 H       -19.6510224272       -1.3093022997       -5.8690995661
 H       -19.9629668773       -2.8685718607       -6.7208573620
 H       -18.7034353338       -1.7839716391       -7.4010354658
 H       -21.7887382181       -6.2998618715       -1.1423359461
 H       -21.9575585007       -4.8556582763       -0.3069075753
 H       -21.8364889837       -6.1929985396        0.7445083068
 H       -19.5754553547       -5.6364524052        1.9104773679
 H       -20.4439464570       -4.0776139016        1.2971881669
 H       -18.7704630212       -4.2818548453        1.1785497398
 Na      -16.6718262603       -4.7656600592       -1.8383495174
 Na        7.3265623119       -0.8180257427      -16.5838800028
