232

 C       -19.4312296830       -8.0162736177        0.3255897210
 C       -18.9290520663       -6.7582325990       -0.3635175155
 O       -17.8967665354       -6.7062389224       -0.9264350674
 C       -19.8580707147       -5.4106481492       -0.2080436176
 C       -19.5106942368       -4.3722574143       -1.3411377305
 O       -18.6389505167       -3.5383639591       -1.1952479550
 C       -20.3698835473       -4.2772396712       -2.5789436785
 C       -19.8836114454       -3.2998499549       -3.7043030884
 C       -18.6055669258       -3.5530448378       -4.3560901064
 O       -17.8592503920       -4.4073863016       -3.8991193281
 C       -18.1107233386       -2.7425454070       -5.5732144672
 C       -17.1178130208       -1.5294781112       -4.9950759375
 O       -17.6014530494       -0.4171847657       -4.9395480371
 C       -15.8028888369       -1.9219943818       -4.3128234999
 C       -16.0201683094       -1.7286376055       -2.8579482614
 C       -14.9743639567       -2.1640860476       -1.8111162953
 O       -15.1948883188       -3.1504250144       -1.1631469678
 C       -13.7745173738       -1.2250054270       -1.5732192389
 C       -12.6392141507       -1.6430045505       -2.5857837766
 O       -12.7323284244       -1.4173472920       -3.7893849848
 C       -11.3683725683       -2.0955739046       -1.9553319794
 C       -10.2212346080       -2.1581484023       -3.0062487647
 C        -8.8530917888       -2.6097571980       -2.4074197164
 O        -8.7611818810       -2.9926768503       -1.2533033376
 C        -7.5446160652       -2.5423174108       -3.2639162987
 C        -7.3299141180       -0.9659406673       -3.4066810464
 O        -8.1219050826       -0.2285009020       -2.8711156940
 C        -6.1956077039       -0.3796890830       -4.2832040579
 C        -6.7721127666        0.7783363805       -5.0745622565
 C        -7.9182959555        0.3598924062       -5.8815956383
 O        -8.6544554046       -0.5154200506       -5.4764773090
 C        -8.1991771458        0.8964764451       -7.4873393245
 C        -7.0350674678        0.3558631863       -8.3370568616
 O        -5.9688934088        0.8217375234       -8.1366934963
 C        -7.2340615475       -0.8106862870       -9.4142704678
 C        -5.8847307555       -1.2587428478      -10.0347664911
 C        -5.7711678857       -0.9327427190      -11.5145262665
 O        -6.6880692269       -1.0010707791      -12.2822109573
 C        -4.2568607806       -0.5697821692      -12.0401963097
 C        -3.3985369371       -1.8052108123      -12.0855740100
 O        -3.8791984132       -2.9038174313      -12.0155997962
 C        -1.9085770831       -1.8075724712      -12.1670735482
 C        -1.3235633144       -3.1643321578      -12.4074516935
 C        -0.0948411211       -3.2256909717      -13.2042517882
 O         0.4360794845       -2.1955218281      -13.7063048009
 C         0.5541150473       -4.6834617571      -13.5223592150
 C         1.8843961817       -4.4975014948      -14.2157043914
 O         2.0524704065       -4.4675204846      -15.4188373254
 C         3.1629563022       -4.2019636789      -13.1877046874
 C         4.4842734108       -4.7047174208      -13.8028141337
 C         5.7202854118       -4.0138886238      -13.2196052089
 O         5.5433630805       -3.0849470683      -12.4732437479
 C         7.1761573549       -4.3535330173      -13.6695006125
 C         7.7297693159       -3.1816143454      -14.5208786944
 O         6.9255464038       -2.7723723191      -15.3553217627
 C         9.2422693456       -2.7020665457      -14.4494651742
 C         9.5578388436       -1.5275422809      -13.4842295608
 C        10.0980715684       -0.2171236350      -14.1767048461
 O         9.9615098183       -0.0449411191      -15.3928983910
 C        10.8118752320        0.8037151808      -13.2959278430
 C         9.5495838012        1.4553042174      -12.5140246283
 O         9.4107378434        1.2194977838      -11.3211296310
 C         8.6388257170        2.5087225964      -13.4087185312
 C         7.1381140515        2.5773958728      -12.9277936190
 C         6.3403363081        1.3567704330      -13.5430669525
 O         6.8218468340        0.7074611280      -14.4261771852
 C         4.8006989055        0.9771951443      -13.0554436334
 C         4.1401454728        0.8984524429      -14.4899565392
 O         4.2621049650        1.7751110294      -15.2512193354
 C         3.2485459159       -0.3548402690      -14.6362884244
 C         2.6866098279       -0.4542513672      -16.0136609473
 C         3.8814825051       -0.7258768961      -17.0376599926
 O         5.0422739779       -0.7073202375      -16.6485529514
 C         3.3808394350       -0.7448818819      -18.5430231490
 C         4.2214704024        0.3138182766      -19.3320560713
 O         4.8430738863       -0.0468876898      -20.2518999167
 C         4.4354057500        1.7806953063      -18.7883137981
 C         5.8225817944        2.3385940111      -19.1051419337
 C         7.0327639789        1.4114473102      -18.6057474663
 O         7.0575217237        1.2853980788      -17.3968172709
 C         8.1918361295        0.7766860657      -19.4379757232
 C         7.7426656860       -0.6914448972      -19.8149308016
 O         7.5153107058       -1.4528384093      -18.8654143665
 C         7.6920220635       -1.1081871699      -21.2601101490
 C         8.3203746997        1.8052452407      -20.6242699822
 C         9.5697383974        0.5749894692      -18.8403274528
 C         3.7279308501       -2.0967491319      -19.0477837061
 C         1.8643109826       -0.3800189850      -18.8996807385
 C         5.0598005555       -0.3084323276      -12.3134333720
 C         3.9267195462        1.9969747216      -12.2345009777
 C        11.8256892224        0.1455673648      -12.4139866413
 C        11.5543339323        1.8465721834      -14.0650480951
 C         8.0619677926       -4.5954099204      -12.4789815902
 C         7.2181749555       -5.5883186190      -14.6102995731
 C         0.5704008114       -5.8065847294      -12.3761500483
 C        -0.4975633496       -5.1569085121      -14.5166584306
 C        -4.5572176882       -0.1916981889      -13.5132931398
 C        -3.6247370246        0.6527938266      -11.2177514229
 C        -9.5770219548        0.4374490728       -7.8893544169
 C        -8.2495376551        2.4547087924       -7.5158731516
 C        -6.4516341424       -3.0548240707       -2.3016417761
 C        -7.7719456656       -3.3242609314       -4.5779681050
 C       -14.1958751934        0.3216712034       -1.6970286156
 C       -13.3606638969       -1.5087612422       -0.0702902753
 C       -17.2251121870       -3.8584306467       -6.4072930622
 C       -19.2205980489       -2.1345101970       -6.3530826295
 C       -21.3538471383       -5.8620945241       -0.2902828315
 C       -19.5414811279       -4.9459298893        1.2809476297
 H       -19.4765754383       -8.0250035977        1.4685662600
 H       -18.8268987574       -8.8213854624       -0.0098506734
 H       -20.4671330428       -8.2862882156        0.1005525203
 H       -21.2355112143       -3.7876516646       -2.2856063834
 H       -20.5682815540       -5.2750312645       -3.0235138024
 H       -19.9668748280       -2.2473229402       -3.3284249782
 H       -20.7526541177       -3.2593939782       -4.4201991977
 H       -14.8721553687       -1.3689436084       -4.6286509744
 H       -15.5822254879       -2.9973864137       -4.5083696019
 H       -16.9088591886       -2.2743067979       -2.5842091046
 H       -16.3089255796       -0.6669062650       -2.6778259179
 H       -11.4905754641       -2.9229791245       -1.2805392061
 H       -11.1198109696       -1.2089784460       -1.2812524151
 H       -10.0167772469       -1.1036606992       -3.3463979588
 H       -10.3717361399       -2.7658204394       -3.8985200501
 H        -5.8130079337       -1.2251825602       -4.9253859492
 H        -5.3528297219       -0.0773037103       -3.6438927940
 H        -5.9680705647        1.2862030789       -5.6419041268
 H        -7.1319757751        1.4395049440       -4.2812449729
 H        -7.8647703989       -0.5065801398      -10.2141734789
 H        -7.6114947109       -1.6961622750       -8.9530609314
 H        -5.7213668243       -2.3241490348       -9.9654579334
 H        -4.9887852285       -1.0569772187       -9.4102231086
 H        -1.5082975783       -1.3297786055      -11.2122176970
 H        -1.6319727813       -1.0442791602      -12.9512322921
 H        -2.1560108695       -3.7570374169      -12.7269370356
 H        -1.1856291197       -3.4470977174      -11.4022484531
 H         3.0884642018       -4.5984503254      -12.1759222504
 H         3.2920555448       -3.0912789905      -13.3097209938
 H         4.5572315933       -4.5504603890      -14.9328427376
 H         4.4801757734       -5.8190968534      -13.7069469535
 H         9.4502635188       -2.3657406900      -15.5231037306
 H         9.8804561343       -3.6050892594      -14.2654720394
 H        10.2625606362       -2.0142398630      -12.8080957368
 H         8.6942120507       -1.2486030297      -12.9724091638
 H         8.7399957094        2.1337180794      -14.4601135333
 H         9.0202432911        3.5069602652      -13.3146911337
 H         6.7584912132        3.6059550035      -13.2011501639
 H         7.0120420936        2.5521831619      -11.8077338406
 H         2.4656137538       -0.3528239545      -13.8250629655
 H         3.9101375460       -1.2346050201      -14.3176586764
 H         2.2131142264        0.4889466313      -16.3555683735
 H         1.7741838357       -1.0446497009      -16.0480042655
 H         4.2870248842        1.8239109610      -17.6943215781
 H         3.7028835017        2.5256526451      -19.1207123332
 H         5.8795855297        3.3815959200      -18.7545130795
 H         5.8024069861        2.4590761495      -20.2139913785
 H         8.7404809580       -1.1292855639      -21.6034752531
 H         7.1168964741       -0.5421726683      -21.9462023091
 H         7.2543697634       -2.0442634693      -21.2998050866
 H         9.1044548845        1.5226216552      -21.4156533442
 H         8.4857265288        2.7984635251      -20.1996399449
 H         7.4320136569        1.8003155969      -21.1208018928
 H        10.2424429880        0.4116896685      -19.6496914110
 H         9.7266192138       -0.2850876126      -18.2267487373
 H         9.8241430062        1.3845442828      -18.1649409931
 H         4.7802138418       -2.4292667238      -19.0827301014
 H         3.2691191739       -2.2011755866      -19.9905293726
 H         3.1603220411       -2.7820873359      -18.3868761337
 H         1.7944442979        0.7285505859      -18.9309086865
 H         1.0829129314       -0.7218244865      -18.2317292019
 H         1.6809679642       -0.8745361852      -19.8210302764
 H         5.8099533271       -0.8764277193      -12.9172172397
 H         4.2735392858       -1.0642574903      -12.3128195217
 H         5.3824035118       -0.1720615154      -11.2916148639
 H         3.5182741863        1.4935589542      -11.3814157435
 H         3.1260535396        2.4369202103      -12.8656582660
 H         4.6925174402        2.6426664338      -11.8282867310
 H        12.5556576708        0.9340301782      -12.1978928800
 H        12.2560267869       -0.7868179075      -12.8221885706
 H        11.5092586667       -0.1871549186      -11.4644576046
 H        11.0224142671        2.3652928139      -14.8699861241
 H        12.4402665281        1.6223497350      -14.5643017960
 H        11.8395795073        2.6600744053      -13.4434873771
 H         7.7086742316       -5.3889217423      -11.8200849072
 H         8.0200203665       -3.7376492016      -11.7776442951
 H         9.0343451037       -4.7651460183      -12.9115863799
 H         7.0363698462       -6.5259654226      -14.1008482967
 H         8.1187452609       -5.8540886931      -15.0959252206
 H         6.4899273099       -5.5540209535      -15.4055648329
 H         1.3511473575       -5.5736512952      -11.6332340202
 H         0.6919788691       -6.8085756736      -12.7333553708
 H        -0.3730532750       -5.7918016070      -11.8096557325
 H        -1.3674753647       -5.4907003370      -14.0566633622
 H        -0.1426552195       -5.9061924869      -15.2153781409
 H        -0.8348247754       -4.3008900966      -15.1063821528
 H        -3.7058784806        0.0979099848      -14.0874607557
 H        -5.4056090599        0.4833877376      -13.7023155878
 H        -4.8767342433       -1.0817270765      -14.0744474681
 H        -3.6681322002        0.4067773692      -10.1471941131
 H        -4.2656640670        1.4523741149      -11.4572703276
 H        -2.6616176236        0.9366764267      -11.5778732218
 H        -9.6964137872       -0.5614589264       -7.6012064647
 H        -9.6513622032        0.4014287020       -8.9637412218
 H       -10.4211894847        1.0260850685       -7.5146356141
 H        -8.7239574522        2.8601631002       -6.6322268014
 H        -8.8565661275        2.8126135801       -8.3356618292
 H        -7.3078900001        2.8800627128       -7.4977935686
 H        -6.2049499639       -4.1020329382       -2.4642026294
 H        -6.7019530357       -3.0328797169       -1.2930012474
 H        -5.5692648063       -2.4525716849       -2.4592765496
 H        -7.9815088290       -4.2929913798       -4.2510784465
 H        -7.0479118655       -3.1728328525       -5.3866284205
 H        -8.7573641319       -2.9951252354       -5.0434943585
 H       -15.2004966175        0.3830273740       -1.3115143649
 H       -14.2672702188        0.6265280125       -2.7165161112
 H       -13.3825187886        0.9477566895       -1.1935715539
 H       -12.4068434522       -1.0636497165        0.3327684023
 H       -13.1950962792       -2.5330151610        0.1437062653
 H       -14.2348095753       -1.2644085777        0.6195293321
 H       -17.8622282455       -4.3437563690       -7.0783176927
 H       -16.9322029319       -4.5875400414       -5.5929636909
 H       -16.3547115710       -3.4467788761       -6.9371706420
 H       -19.6308352978       -1.1806020598       -5.8111379112
 H       -20.0278514676       -2.7944714550       -6.4591531624
 H       -18.8270190547       -1.9073118206       -7.3211708997
 H       -21.6059367111       -6.3058618027       -1.1806873038
 H       -22.0665015554       -5.0463732731       -0.1679420003
 H       -21.5811711031       -6.5065443959        0.6156356503
 H       -19.4004776874       -5.8049399760        1.9426447861
 H       -20.3260389776       -4.1844390536        1.4488387910
 H       -18.6372214980       -4.3213435906        1.2417596023
 Na      -16.6927422157       -4.7556516307       -1.9255651317
 Na        7.4874328882       -0.8847825723      -16.5725997327
