232

 C       -19.3714703763       -7.9314338843        0.2962549809
 C       -18.8972555403       -6.7238322794       -0.3801864515
 O       -17.7373259936       -6.5736826429       -0.8648542408
 C       -19.7935467114       -5.4429657036       -0.2213282919
 C       -19.4942569443       -4.2914538118       -1.3074219541
 O       -18.6031316866       -3.4784491528       -1.0221887045
 C       -20.3808142938       -4.2932955607       -2.6218697156
 C       -19.9594625620       -3.2417350129       -3.6939284770
 C       -18.5813054401       -3.6130942922       -4.2465820934
 O       -17.8750529368       -4.4915837016       -3.7789733905
 C       -18.0896912212       -2.7886285786       -5.5295537219
 C       -17.1879232017       -1.5830093468       -4.9617342849
 O       -17.5696408427       -0.4556391347       -5.0083345956
 C       -15.8900803338       -2.0216532990       -4.2840354604
 C       -16.0561357974       -1.7002528341       -2.7814695640
 C       -14.9880685202       -2.1670730166       -1.7805117065
 O       -15.1069752651       -3.2814825316       -1.2238764172
 C       -13.7785114893       -1.2883732646       -1.4867492458
 C       -12.5672980592       -1.5300940716       -2.5439020462
 O       -12.8927373581       -1.4263706596       -3.7221625867
 C       -11.1553686675       -1.8065689100       -2.0079885887
 C       -10.2247540383       -2.2388050351       -3.1546595877
 C        -8.8542259608       -2.6292294432       -2.4629049691
 O        -8.8196991407       -3.0208127356       -1.3044122119
 C        -7.5870902345       -2.4464770756       -3.3246073837
 C        -7.4257754118       -0.8415614553       -3.4763161336
 O        -8.1049830324       -0.0792505658       -2.8031298042
 C        -6.2312646658       -0.2919950220       -4.3031932117
 C        -6.7481583948        0.9389549473       -5.0530527436
 C        -7.9996532310        0.3958413668       -5.9919834011
 O        -8.6819117813       -0.4872161297       -5.4977004681
 C        -8.2962217185        0.8456218560       -7.3996449510
 C        -7.0278791400        0.3138540867       -8.3224160303
 O        -5.9049223113        0.7915373189       -8.2458281394
 C        -7.3130759455       -0.7337684103       -9.4299769407
 C        -5.9797153116       -1.3005887853      -10.0768429873
 C        -5.7899392636       -0.9689479309      -11.5883267679
 O        -6.7140572615       -0.9490448679      -12.3951945344
 C        -4.3422661421       -0.6013748123      -12.1098844032
 C        -3.4562428488       -1.8819614801      -12.0122990699
 O        -3.9235764540       -2.9580858337      -11.9191428662
 C        -1.8207932538       -1.7658234275      -12.1197988528
 C        -1.2577007261       -3.1860668280      -12.3458843221
 C        -0.0074372324       -3.3626650881      -13.1581995566
 O         0.5453711137       -2.3705153721      -13.6688095195
 C         0.4648359297       -4.7077638738      -13.5723705823
 C         1.9199605130       -4.4834413045      -14.1668229744
 O         2.0536043067       -4.5386727374      -15.3565113197
 C         3.1676056983       -4.1510889330      -13.3207124080
 C         4.4933746270       -4.6399107740      -13.8651314517
 C         5.6694444542       -4.0209135639      -13.1527624845
 O         5.5187104853       -3.0298273705      -12.4743517903
 C         7.1955719343       -4.4338730741      -13.5224539555
 C         7.7520305942       -3.2445269518      -14.5062650789
 O         6.9906389763       -2.7521993219      -15.3400513517
 C         9.1664635924       -2.7790659526      -14.5328194701
 C         9.4814749447       -1.6326623960      -13.5197491830
 C        10.0059563273       -0.3292870521      -14.2053663594
 O         9.8773007450       -0.1671083028      -15.3793902586
 C        10.7370053501        0.8550557771      -13.2967652730
 C         9.6253890226        1.5687665944      -12.4247611502
 O         9.4988368110        1.3375645321      -11.2673963851
 C         8.6574978145        2.3963036491      -13.2347175509
 C         7.2040853659        2.5275054634      -12.8913973817
 C         6.3874068937        1.4449053659      -13.5342537103
 O         6.8649767180        0.7606836757      -14.4277530384
 C         4.9559748059        1.0776606847      -13.0615274518
 C         4.2264843056        0.9020446967      -14.4520171872
 O         4.4019744371        1.6921438257      -15.3771417811
 C         3.2686199707       -0.2930721396      -14.5907116326
 C         2.6939620146       -0.3757129406      -15.9197211082
 C         3.7372661055       -0.4954827309      -17.0023789571
 O         4.9040703134       -0.7489755270      -16.6830879588
 C         3.3257647019       -0.7407889782      -18.5047571734
 C         4.2837016999        0.1581676912      -19.3179987853
 O         4.5993647801       -0.1302583794      -20.4705906035
 C         4.4951339489        1.6418101529      -18.7599119490
 C         5.8638132150        2.2251338947      -19.0268296917
 C         7.0463952462        1.4353052686      -18.3847007012
 O         7.0416954171        1.2321477359      -17.1490348200
 C         8.1357724130        0.8599261358      -19.4693111712
 C         7.6741531763       -0.6635139058      -19.8132050086
 O         7.4800234826       -1.4645616636      -18.9152729801
 C         7.6919783510       -1.1025539498      -21.2686234304
 C         8.3794175666        1.8340935076      -20.6834684368
 C         9.5220823939        0.6460010087      -18.7625613441
 C         3.6396429835       -2.2098075483      -18.9903821006
 C         1.8595916318       -0.3759539508      -18.8590516275
 C         4.8312197894       -0.1098964401      -12.2556684140
 C         3.8951782420        2.1651819557      -12.3600512678
 C        11.7467585556        0.0958486610      -12.4269334136
 C        11.4570704780        1.8141688025      -14.2476538859
 C         8.2124200478       -4.7843904642      -12.3814165841
 C         7.2297115825       -5.6381005712      -14.5898923643
 C         0.5921065902       -5.6748318803      -12.4160601662
 C        -0.5052267995       -5.3442245745      -14.6527384981
 C        -4.4492716009       -0.1722863979      -13.6239562850
 C        -3.6335761302        0.4649756438      -11.2456226412
 C        -9.7596163470        0.4495707164       -7.8423573374
 C        -8.2443685060        2.4368005402       -7.4333074598
 C        -6.3816191833       -3.0497821545       -2.5843283153
 C        -7.6810621763       -3.0604774847       -4.6995198451
 C       -14.0828879668        0.1495128161       -1.6851359201
 C       -13.2797531076       -1.5121111986        0.0005415411
 C       -17.2724727514       -3.6720766212       -6.4229516382
 C       -19.2397918123       -2.1416949652       -6.3839964428
 C       -21.2889130693       -5.8752555413       -0.3497621041
 C       -19.4298918469       -4.9450207181        1.1983607234
 H       -19.5310188255       -7.8413780779        1.3535741666
 H       -18.7419492330       -8.8177334220        0.0853233965
 H       -20.4137302627       -8.1959682042       -0.0458835759
 H       -21.4162347113       -4.1521878391       -2.3984169803
 H       -20.1910004485       -5.2333489632       -3.0853678479
 H       -20.0334436474       -2.1800316305       -3.3372208083
 H       -20.7886537460       -3.2460715300       -4.4525296942
 H       -15.0385257692       -1.3227439020       -4.6488072096
 H       -15.6038414507       -3.0269890641       -4.4715476401
 H       -17.0320641545       -2.0864223960       -2.4307786657
 H       -16.2204180994       -0.5478500520       -2.7004659741
 H       -11.2923799932       -2.6629552636       -1.4164671316
 H       -10.7120559078       -1.0115757911       -1.3420426923
 H       -10.0092722540       -1.4349561762       -3.8907730568
 H       -10.5916571072       -3.1386373857       -3.6954078264
 H        -5.8617634072       -1.0251255320       -5.0209163564
 H        -5.4208464865       -0.1211380822       -3.5907356272
 H        -5.8449705543        1.3451358901       -5.6061108498
 H        -7.1145860171        1.7229952567       -4.3000429732
 H        -7.8990175427       -0.2608964319      -10.2129980351
 H        -7.8461662744       -1.6340942568       -8.9971710182
 H        -5.7366594741       -2.3031726964       -9.8417544245
 H        -5.1105356210       -0.9426975112       -9.5287961063
 H        -1.3896489330       -1.2966733691      -11.2401211090
 H        -1.5516434868       -1.0854214278      -12.9390940861
 H        -2.0702577361       -3.6465731636      -12.9332726231
 H        -1.4204500825       -3.5724673154      -11.3814210538
 H         3.0943735754       -4.6360246170      -12.3751620598
 H         3.1724880233       -3.0435007179      -13.3662103764
 H         4.6683993988       -4.4460967471      -14.9582198879
 H         4.3906899977       -5.7774960945      -13.7816483862
 H         9.2666168491       -2.3647745496      -15.5175570076
 H         9.8420913801       -3.6909106002      -14.4633954495
 H        10.2486942438       -2.1494926974      -12.9169934298
 H         8.6217935531       -1.3825228681      -12.9460296249
 H         8.7413370927        2.0835269719      -14.2150943982
 H         9.0259943587        3.4071192870      -13.1438954670
 H         6.9514364263        3.5699253001      -13.3527838092
 H         6.8819957279        2.6551891118      -11.8765325669
 H         2.4720880239       -0.3619550963      -13.7878976827
 H         3.9097583603       -1.1279703001      -14.3525930057
 H         1.9728322346        0.4362777097      -16.1805180048
 H         1.9375864280       -1.1775473964      -16.0173403036
 H         4.2951515738        1.8076207182      -17.6510455245
 H         3.7355876109        2.2501842846      -19.2074682056
 H         5.8959781920        3.2650664284      -18.6246663228
 H         5.9844746380        2.4316030657      -20.1176828256
 H         8.7001523769       -1.2185106965      -21.7124607238
 H         7.1249951781       -0.4929872438      -21.8977166773
 H         7.1196713577       -2.0128571933      -21.2935393401
 H         9.2667401334        1.5807358776      -21.1825603147
 H         8.4106395078        2.8335742076      -20.3102302396
 H         7.5027330159        1.7558680109      -21.4568501606
 H        10.2910163270        0.4003914749      -19.4718936920
 H         9.5089013789       -0.2207372404      -18.1344617302
 H         9.7929787878        1.4157085554      -18.0727956234
 H         4.6400059090       -2.5003932555      -18.7886621892
 H         3.3622887440       -2.3454253697      -20.0227660906
 H         3.0394455038       -2.8835968766      -18.3182829177
 H         1.5430619382        0.6028544912      -18.8579503428
 H         1.1746348381       -0.8917396234      -18.2506175325
 H         1.8558319252       -0.8994243515      -19.8318969246
 H         5.1768402804       -1.0465056820      -12.7014251347
 H         3.7489430903       -0.3455542780      -12.0151960813
 H         5.2632675143        0.0643206531      -11.2143360627
 H         3.2860073344        1.6439030897      -11.5968809086
 H         3.2315314107        2.3577486009      -13.1458222608
 H         4.3700106553        2.9884503735      -11.8740807198
 H        12.2999620678        0.8571299750      -11.9944872628
 H        12.4076861031       -0.5392407287      -13.0274354929
 H        11.4538259405       -0.5161260033      -11.5825566802
 H        10.8562619653        2.4212212077      -14.9864136245
 H        12.1864288201        1.4107943486      -14.9397484620
 H        12.0764839589        2.5232509764      -13.7745062896
 H         7.6348449387       -5.5317048448      -11.7555555700
 H         8.3114857019       -3.9757004743      -11.6296066811
 H         9.1233014579       -5.1745196620      -12.7710556612
 H         7.0103468223       -6.6571148415      -14.2426056647
 H         8.1898157481       -5.8306320029      -14.9194668314
 H         6.6842395514       -5.4847690329      -15.4480900751
 H         1.1912628015       -5.1807081912      -11.5917853233
 H         1.1985507261       -6.5325922860      -12.7365923917
 H        -0.3197560101       -6.1179656404      -12.0033905252
 H        -1.5495909775       -5.4464566385      -14.4569429205
 H        -0.1282384373       -6.2477983623      -15.0450688442
 H        -0.3944418104       -4.6863484958      -15.4287901685
 H        -3.5242121687        0.1111506410      -14.0544487233
 H        -5.2547345557        0.5971803521      -13.9060243903
 H        -4.7838208613       -1.0150595796      -14.2736360529
 H        -3.6888500555        0.2118472219      -10.2196385385
 H        -4.0662597815        1.4658042597      -11.5240643962
 H        -2.6206159961        0.5275750236      -11.6104104223
 H        -9.9633210286       -0.5896569968       -7.7896648945
 H        -9.8683475481        0.7103024185       -8.9008609520
 H       -10.4823754510        0.9411004216       -7.2926512015
 H        -8.5620823942        2.8579088647       -6.4782235370
 H        -8.9868660816        2.7727559981       -8.1500734226
 H        -7.2650577698        2.8967005642       -7.5598614343
 H        -6.2360930623       -4.0496183946       -2.7832472261
 H        -6.3670333884       -2.9343779050       -1.4700994585
 H        -5.5187292442       -2.5022968893       -2.9903273787
 H        -7.7844562343       -4.1027310090       -4.5069012074
 H        -6.8901491442       -2.7328871371       -5.3833607691
 H        -8.5935039985       -2.7452336044       -5.2005828757
 H       -14.9949974696        0.4111259265       -1.1754802163
 H       -14.2564200761        0.3485635774       -2.7172909318
 H       -13.1412147602        0.6720326705       -1.3766949313
 H       -12.2218870640       -1.4866198458        0.1455022516
 H       -13.4170966880       -2.5421617703        0.2610410656
 H       -13.7279290449       -0.9168580246        0.7574761786
 H       -17.9949402085       -4.3204143076       -6.8598534373
 H       -16.5302997958       -4.2670098823       -5.9003931041
 H       -16.8993400790       -3.0475018003       -7.2325853901
 H       -19.6252529152       -1.3483889084       -5.8065396809
 H       -20.0792272795       -2.8615637444       -6.4772139356
 H       -18.8666152931       -1.8242590538       -7.3340628714
 H       -21.4890604433       -6.3421559233       -1.3058064351
 H       -21.9867118845       -5.0537903013       -0.2061122992
 H       -21.5392231760       -6.5525999417        0.4023766603
 H       -19.3534450433       -5.7755579827        1.9167234663
 H       -20.0708131770       -4.0972307700        1.3832544340
 H       -18.4083902560       -4.4330231040        1.0641364851
 Na      -16.7650613228       -4.7910887083       -1.9294425659
 Na        7.6467152001       -0.8290713246      -16.5054592816
