232

 C       -18.2136411923      -13.5481426587       -0.5623383201
 C       -17.1444234652      -13.6059557181       -1.5530684869
 O       -17.1391157351      -12.8040340549       -2.4884048454
 C       -15.9267280220      -14.6399468270       -1.4019496740
 C       -15.1025776354      -14.7832849302       -2.7261111478
 O       -15.6183036384      -14.9203545480       -3.8020812078
 C       -13.5056278953      -14.8551235309       -2.7248305678
 C       -12.9981316756      -14.9747837517       -4.1166854740
 C       -13.4078354133      -13.7324279675       -4.9608263362
 O       -13.8891253864      -12.7673152036       -4.4430475340
 C       -13.1184701436      -13.5532478757       -6.5139067960
 C       -14.4387249000      -12.7156589649       -6.9301818747
 O       -15.4452051944      -13.3996353334       -6.9533752128
 C       -14.4628975511      -11.3141594815       -7.5959027433
 C       -15.8407577930      -10.5603741571       -7.4128679097
 C       -15.8567209842       -9.7100173897       -6.0945232810
 O       -15.6878795245      -10.2045207991       -4.9587274156
 C       -15.9516501553       -8.1000011409       -6.1457849739
 C       -14.7836493037       -7.4815482904       -6.9693371331
 O       -13.8226155681       -8.1424030071       -7.3671565317
 C       -14.8990048399       -5.9616897852       -7.1873625360
 C       -13.5170339598       -5.3066132662       -7.6127437241
 C       -13.6324823532       -3.7035156540       -7.7441396784
 O       -14.6427178991       -3.1282907708       -7.6628973784
 C       -12.3827193016       -3.0083555179       -8.3173679020
 C       -11.3210524345       -2.9958405380       -7.2389521037
 O       -11.5845030071       -3.2914401427       -6.0926179375
 C       -10.0216859475       -2.4466154056       -7.6285453494
 C        -9.4736333887       -1.3447882038       -6.6616545341
 C        -9.5276927964        0.1223633815       -7.1865436847
 O       -10.3081182603        0.4886563962       -8.0680838116
 C        -8.9201668428        1.2319292793       -6.3456962438
 C        -7.4528441062        1.4760000735       -6.8889805657
 O        -6.5598589083        0.7229340149       -6.7034923583
 C        -7.3022188768        2.7684268067       -7.6311352989
 C        -5.7859301076        2.9498149278       -8.1528851568
 C        -5.5890812521        3.5448982571       -9.5063237997
 O        -5.5353183622        4.7209071191       -9.6782940706
 C        -5.4877004455        2.5413715305      -10.7644979420
 C        -4.1528385408        1.6475951007      -10.6233062690
 O        -4.1538401731        0.4509659527      -10.4991541577
 C        -2.8687064334        2.5029647018      -10.5489689442
 C        -1.7419570391        1.7539435003       -9.8382822647
 C        -0.2854581404        2.4025451442       -9.8617795896
 O         0.0201399942        3.3958786322      -10.4227074529
 C         0.8596430165        1.5440117029       -9.1761778884
 C         2.0765534411        2.5145874961       -9.4526950243
 O         2.7676609073        2.4160016534      -10.4370656392
 C         2.4861755119        3.5632610493       -8.4209476498
 C         3.5879626179        4.4510497582       -9.0359813586
 C         3.1194368477        5.4350705648      -10.1844568581
 O         1.9820291488        5.7950927723      -10.3463059774
 C         4.3289208815        5.9226612075      -11.1823933145
 C         4.0994032108        5.1506367747      -12.5783916310
 O         4.8764490347        4.3157997369      -13.0063583802
 C         2.5908411386        5.1824104737      -13.1937890513
 C         2.6535204381        5.9717287001      -14.4344900168
 C         3.2400683748        5.1700254679      -15.6760016272
 O         3.3449772254        3.9387346332      -15.6907746120
 C         3.3251332873        5.9361070168      -17.0468718990
 C         4.8453375324        5.9208550885      -17.4984399826
 O         5.2254205227        5.4965039846      -18.5583687192
 C         5.7792431124        6.7283955026      -16.5578193261
 C         7.2826194182        6.2974294199      -16.6303517694
 C         7.4172635267        4.7711968149      -16.2494437823
 O         6.6093225312        4.2587309603      -15.5008358815
 C         8.5712331316        3.9406479515      -17.1121228867
 C         9.9434620882        4.2139506190      -16.5165466113
 O        10.1386128910        5.1098712766      -15.6960891574
 C        11.2060262241        3.3819898255      -17.0362450982
 C        12.0866267779        2.9289013498      -15.8598707057
 C        11.9202726571        1.4462227269      -15.5898490156
 O        11.5963517616        0.7635070434      -16.5482354184
 C        12.2329951182        0.8351916637      -14.2169840626
 C        11.0757151648       -0.1558291848      -13.6414078528
 O        11.1558993627       -1.3463793422      -13.5837774929
 C         9.7090439320        0.5167473105      -13.5449253555
 C         8.5782955878       -0.3961916703      -13.1653760882
 C         7.2070170343        0.1819763354      -13.4362670167
 O         7.0684896287        1.3360977061      -13.8444748548
 C         5.8668893260       -0.6357938699      -13.2227393888
 C         4.8116551392       -0.5550375090      -14.3698065936
 O         4.7307873505        0.4064039151      -15.1730998570
 C         3.5563946422       -1.5210315683      -14.3798503077
 C         6.1652700763       -2.1146337995      -12.7817565724
 C         5.1841958582        0.2024383183      -12.0984716130
 C        13.3568020871       -0.1793763170      -14.3796099268
 C        12.5263278891        1.9156883337      -13.1577761119
 C         8.0885215971        2.5111917326      -17.0313220863
 C         8.5726026619        4.3901028134      -18.5867181745
 C         2.5701948426        5.1940123100      -18.2006414313
 C         2.6969230302        7.3291412672      -16.9659836669
 C         4.1382092099        7.4440222377      -11.2027936540
 C         5.7495658632        5.6697957999      -10.6750589848
 C         0.6517696509        1.2170113743       -7.6329037625
 C         1.0692665038        0.2566336032      -10.0365363334
 C        -6.8239599240        1.8381444301      -10.8536402805
 C        -5.3122956695        3.3855031523      -12.0766607166
 C        -9.8356868255        2.5211280614       -6.4005677167
 C        -8.8864445721        0.7054482745       -4.9098634675
 C       -11.8789107391       -3.5076362403       -9.7225819186
 C       -12.9567085983       -1.4839156356       -8.4619696818
 C       -17.2179475674       -7.7563243874       -7.0049625088
 C       -15.9823227857       -7.5802835589       -4.7548197647
 C       -11.8066042092      -12.6576416856       -6.5455034970
 C       -12.9400353836      -14.8993987665       -7.2303077341
 C       -15.0936141960      -14.2202692273       -0.1379487158
 C       -16.5412636807      -16.0871082588       -1.1631621057
 H       -18.1217112618      -14.4874043095        0.0570036188
 H       -19.1246525962      -13.4711867792       -1.1215331952
 H       -18.1031124748      -12.6949029212        0.0586586018
 H       -13.3379074023      -15.8089167602       -2.1403921011
 H       -13.1356259110      -14.0032614375       -2.1780987561
 H       -13.3341582734      -15.9482154949       -4.5610478336
 H       -11.8973232129      -15.0383018366       -4.1282844622
 H       -14.2954526117      -11.5525802515       -8.6894649636
 H       -13.7170581628      -10.6721685286       -7.1514272745
 H       -16.6648927107      -11.3927644263       -7.4629186989
 H       -15.9842546384       -9.8535536267       -8.2732741085
 H       -15.1089302350       -5.5358343448       -6.2458820339
 H       -15.6863002352       -5.6074954050       -7.8519606926
 H       -13.2626101047       -5.7038229230       -8.5652931599
 H       -12.7818876020       -5.4913804107       -6.8702978934
 H       -10.0709298123       -1.9555151879       -8.5351903975
 H        -9.3132101152       -3.3014590150       -7.6008566290
 H        -8.4557892923       -1.6503070550       -6.4667421190
 H        -9.9339480430       -1.3866830238       -5.6629461815
 H        -7.6402741983        3.5833708509       -6.9746193545
 H        -8.0018099217        2.6942579378       -8.4504034747
 H        -5.5097684046        1.8273140370       -8.0629600595
 H        -5.1626262219        3.5461441443       -7.4988799017
 H        -3.0831511477        3.4760957507       -9.9376030600
 H        -2.5388044012        2.7982999436      -11.5760947824
 H        -1.8674979471        0.6772046505      -10.1718934308
 H        -2.1314646784        1.7415524006       -8.7570114128
 H         2.6803388377        3.0061158519       -7.4690531318
 H         1.6281751596        4.3045611686       -8.1323348119
 H         4.2946294863        3.7895150884       -9.5485170985
 H         4.0404423461        5.1098660920       -8.2931166869
 H         1.9064211290        5.5117652801      -12.4258689687
 H         2.2941906522        4.1301417632      -13.3781552938
 H         3.1313884773        6.9114746388      -14.2822113356
 H         1.6728655150        6.1578022969      -14.8007751547
 H         5.3542768801        6.7519808791      -15.5542276795
 H         5.6043265401        7.7031638851      -17.0435985698
 H         7.7908414622        6.9437382709      -15.8807301601
 H         7.7309237417        6.5815761783      -17.6295850421
 H        11.8035699855        4.1531682584      -17.6273404405
 H        11.0963137249        2.6288868265      -17.7846208620
 H        12.0223576957        3.6022136386      -14.9712549627
 H        13.1148419881        3.0416014504      -16.1601707637
 H         9.5210486351        0.9277957581      -14.6026019074
 H         9.8311749591        1.3362498631      -12.8719888030
 H         8.7430728285       -0.7202101914      -12.1398197543
 H         8.6482169181       -1.2298859744      -13.8549806709
 H         3.7176972413       -2.4120539094      -13.8331610993
 H         3.3765476835       -1.6604098664      -15.4553748660
 H         2.6882882498       -1.0329802530      -14.0959948836
 H         5.2608155762       -2.5567314576      -12.3768294847
 H         7.0651580107       -2.1871542901      -12.2640576160
 H         6.3770930176       -2.7105035733      -13.6535757359
 H         5.0757409699        1.2392707413      -12.4251470496
 H         5.8895144221        0.2590459302      -11.2479321797
 H         4.2875803620       -0.2276077011      -11.8221191884
 H        14.3631697206        0.1709467834      -14.6656143594
 H        13.1208612250       -1.0004058020      -15.0990741102
 H        13.4596326156       -0.5960355161      -13.3911006551
 H        13.4819939593        2.4714187393      -13.3270901582
 H        12.7032139507        1.4407452928      -12.1554457664
 H        11.7022571765        2.6260583348      -13.1254629458
 H         7.9224833669        2.2246262716      -15.9381353402
 H         8.7935082297        1.9074686942      -17.4938094335
 H         7.0719954320        2.5364453088      -17.4806131335
 H         8.9060064833        5.3336464999      -18.8600326096
 H         7.5893892282        4.1478959661      -19.0089400350
 H         9.2878518976        3.7500674342      -19.2929895995
 H         1.4702633859        5.1409987711      -18.0282186256
 H         2.8985915412        4.2203498557      -18.0912276675
 H         2.8493920130        5.7179218770      -19.1703930392
 H         2.7900501006        7.7408373899      -17.9536463945
 H         3.2226842784        8.1109409805      -16.3929042324
 H         1.6049615998        7.1177542052      -16.7020533169
 H         3.9735774948        7.7111334546      -10.2067371193
 H         3.2472296498        7.8316964591      -11.7194059921
 H         5.0376303815        8.0335140354      -11.4886842002
 H         6.4133817886        5.7342973722      -11.5597309106
 H         5.6982710301        4.8045758967      -10.0816495720
 H         5.9197367444        6.3659509685       -9.9557013065
 H         0.9880122366        2.0939126004       -7.0354320056
 H         1.3735351176        0.5104139724       -7.3895209752
 H        -0.2801934993        1.0333485959       -7.2498375786
 H         0.3973364818       -0.5085862175       -9.6672586375
 H         2.1365516157       -0.1162826134       -9.8033264807
 H         0.9292242974        0.4856041405      -11.1025679912
 H        -7.0726490918        1.0928707979      -10.0798600019
 H        -6.9367485763        1.2143100238      -11.7908659303
 H        -7.6271675163        2.5647125578      -10.8991864635
 H        -4.7560599728        2.8711251516      -12.8222374269
 H        -4.8712352473        4.3541103931      -11.9710148903
 H        -6.3097668618        3.4985426283      -12.5156222193
 H       -10.8298053718        2.1695238670       -6.0514142137
 H        -9.9040623251        3.1136111459       -7.3069339734
 H        -9.3864598648        3.1227088404       -5.6589615871
 H        -8.5318232423        1.5573421926       -4.3689045681
 H        -8.1281611648       -0.0273132255       -4.9669514796
 H        -9.8082122228        0.2138491017       -4.5537340109
 H       -11.1376057059       -2.7465846447      -10.0916597005
 H       -12.7726428800       -3.5699110902      -10.3148057452
 H       -11.4603771672       -4.5334783314       -9.5126441499
 H       -13.8337553787       -1.4722379035       -9.1306623622
 H       -12.2287363527       -0.7984880733       -8.9148630840
 H       -13.1252903514       -1.0568615278       -7.4669494129
 H       -17.1442916259       -8.0328775259       -8.0532885785
 H       -17.2989448287       -6.6560829768       -7.0097435929
 H       -18.0566640999       -8.2206068000       -6.5480185023
 H       -15.0167228117       -7.4734999057       -4.3923016616
 H       -16.7341898680       -8.1491781596       -4.1271431174
 H       -16.3207559421       -6.5550875483       -4.7350203705
 H       -11.8639473099      -11.5913395722       -6.4524618832
 H       -11.2130073780      -12.7879472686       -7.4762875063
 H       -11.0293616662      -12.9591959410       -5.8328565400
 H       -13.8046549819      -15.5018935262       -7.0211668427
 H       -12.0637785345      -15.4716807667       -6.8323962821
 H       -12.7351178508      -14.8369011076       -8.2209484624
 H       -14.7884727207      -13.2197192042       -0.1961625921
 H       -14.2697550660      -14.8475398741        0.0187615728
 H       -15.6954939888      -14.2878578134        0.8378565854
 H       -17.5099005400      -16.2090644914       -1.7077898485
 H       -16.7195976353      -16.3272010883       -0.1189769020
 H       -15.9567916921      -16.8906447810       -1.4847016959
 Na      -15.9568718682      -12.5005030164       -4.6638553448
 Na        5.2394597462        2.5957895492      -14.5161432473
