232

 C       -19.0944433407       -8.0722370550        0.0438027840
 C       -18.6753399788       -6.6045790651       -0.3463210813
 O       -17.6097673215       -6.4029689526       -0.8059389850
 C       -19.6990721667       -5.4474060107       -0.1615431453
 C       -19.4558152902       -4.2912072079       -1.3150662145
 O       -18.6921488050       -3.3976065099       -1.0938733955
 C       -20.3422243440       -4.2873945527       -2.5663880968
 C       -19.8586572785       -3.2282704190       -3.5808136515
 C       -18.6198455952       -3.6815357006       -4.3721225633
 O       -17.8384327660       -4.5223424605       -3.9107583678
 C       -18.1846033774       -2.8121387402       -5.5745997470
 C       -17.2311835380       -1.6539535362       -4.8908986816
 O       -17.4557659424       -0.4897664970       -5.1440372253
 C       -16.0246470013       -2.1193184027       -3.9648155204
 C       -16.1380610451       -1.6446139450       -2.4423198162
 C       -14.9340470078       -2.1793615614       -1.6747007888
 O       -14.7925655893       -3.3770771256       -1.5607377507
 C       -13.7003627313       -1.3357630193       -1.3327353077
 C       -12.6087440060       -1.5402372584       -2.5344005240
 O       -13.0154745538       -1.6473717119       -3.6776258217
 C       -11.1088051530       -1.4848525736       -2.3048446982
 C       -10.2938647052       -2.3297020225       -3.2881485454
 C        -8.8279577132       -2.6495216567       -2.7010396677
 O        -8.7081943317       -3.1457060293       -1.6112974546
 C        -7.5244513625       -2.2247381389       -3.4832042937
 C        -7.3731420961       -0.6232931158       -3.3941245677
 O        -8.0371877371       -0.0443718543       -2.5811574162
 C        -6.2267058557        0.0585800016       -4.2331562621
 C        -6.7832699271        0.9218746359       -5.3610245451
 C        -7.9828805928        0.3560574003       -6.0507396938
 O        -8.8507898337       -0.3922461074       -5.6440493579
 C        -8.3468159588        0.9585846773       -7.5439050813
 C        -7.1173885549        0.4151748931       -8.4954657571
 O        -6.0091269620        0.7751446514       -8.2317059599
 C        -7.4046571894       -0.6138322813       -9.6331732122
 C        -6.1603488958       -1.2399706761      -10.1729635620
 C        -5.9023370917       -0.9184965842      -11.6539690395
 O        -6.7646289618       -0.7628428077      -12.4547235489
 C        -4.3454320703       -0.6660586776      -12.0779846476
 C        -3.5069141686       -2.1042352693      -11.9691109782
 O        -4.0743250020       -3.1413264337      -11.6485898057
 C        -2.0061713397       -2.0349695064      -12.2422859024
 C        -1.1780265575       -3.4230486550      -12.4144750939
 C         0.0082827681       -3.3962892742      -13.1798560158
 O         0.6300917111       -2.3530655808      -13.4051037740
 C         0.6400432128       -4.8148093999      -13.7010981400
 C         1.9988198228       -4.6691136240      -14.3200739092
 O         2.2306612139       -4.7129530807      -15.5152533926
 C         3.1846532376       -4.1328988896      -13.3769008754
 C         4.6342331165       -4.5723105214      -13.9785981541
 C         5.7695738429       -4.0484648389      -13.1618332128
 O         5.7709138495       -3.2201717511      -12.2617773329
 C         7.1059896505       -4.5974006542      -13.6759248507
 C         7.7042370060       -3.3734621824      -14.5371876274
 O         7.0454053613       -2.6109079291      -15.2039192927
 C         9.2251722403       -2.9992099204      -14.3807917023
 C         9.3405994501       -1.7238060888      -13.4472274651
 C         9.7989620543       -0.5003543614      -14.1269546451
 O         9.6088324392       -0.2437914277      -15.3282086214
 C        10.6201260244        0.6503511985      -13.3955429208
 C         9.6807627176        1.5344366597      -12.6062117913
 O         9.6815021521        1.4415569490      -11.3762351278
 C         8.6599842531        2.5913450901      -13.1324663831
 C         7.2529787716        2.4675402604      -12.5381155756
 C         6.4664082497        1.4524180698      -13.3626402935
 O         7.0529164722        0.6902392106      -14.0880188879
 C         4.9179939649        1.4635191669      -13.1359483232
 C         4.1305825249        0.9526415651      -14.4795274349
 O         4.4115275838        1.5429247334      -15.4583691174
 C         3.0581011047       -0.2601336562      -14.5930613718
 C         2.5486514914       -0.4198585880      -16.0665903492
 C         3.7199149347       -0.7485441483      -17.0474472488
 O         4.8344655974       -0.9104524372      -16.6079781388
 C         3.2493132920       -0.9343038714      -18.5343882954
 C         4.1883752771        0.1434969870      -19.4786364914
 O         4.4413999541       -0.0726767527      -20.6084867473
 C         4.4700441027        1.4103899376      -18.7387733901
 C         5.8290622468        2.1901103045      -19.0563761536
 C         7.0346891344        1.4284805822      -18.4863349528
 O         7.1354885667        1.2753659644      -17.3004855123
 C         8.2716488736        0.8476435607      -19.3974007244
 C         7.7768032240       -0.6653139226      -19.6431788913
 O         7.3682443548       -1.4319379771      -18.7467381995
 C         7.5052747537       -0.9705249065      -21.1336647752
 C         8.3736061402        1.7754885305      -20.6333469704
 C         9.4793475299        0.8620903304      -18.4638071535
 C         3.4632664574       -2.4071722013      -18.8319246749
 C         1.6748945353       -0.3941166016      -18.8491888076
 C         4.7857194389        0.3800086179      -12.0168671195
 C         4.4779454229        2.7993880584      -12.7181029526
 C        11.6359045073        0.1320078783      -12.4278882409
 C        11.2538026901        1.4578491536      -14.4043799299
 C         7.9053052803       -4.7282796886      -12.3901093500
 C         7.1242151290       -5.8300755318      -14.5442867112
 C         0.6114083070       -5.6248885603      -12.3841238262
 C        -0.2446253105       -5.5561427416      -14.6488544142
 C        -4.2343517123       -0.2864439231      -13.5884937781
 C        -3.7486040223        0.5422997018      -11.2446392650
 C        -9.7447151423        0.4286293252       -8.0208370887
 C        -8.1255047000        2.4714878713       -7.4604738208
 C        -6.1902843347       -2.7916180669       -2.9533993807
 C        -7.7054418983       -2.8084410473       -4.8990088602
 C       -13.9410778250        0.2139678040       -1.4280784805
 C       -13.3181563334       -1.6653531418        0.0985757303
 C       -17.2987911821       -3.6209985868       -6.5552326936
 C       -19.4152248124       -2.1426927756       -6.2143913698
 C       -21.2052972621       -5.8467511480       -0.1918688544
 C       -19.4254347369       -4.7150507664        1.2706932081
 H       -19.8496378561       -8.1481609029        0.8620646054
 H       -18.2549977367       -8.6619897376        0.2940659359
 H       -19.6311248000       -8.6126730511       -0.6842428136
 H       -21.3717999005       -4.0508912065       -2.1785562317
 H       -20.3392699874       -5.3105014469       -3.0815345009
 H       -19.5101781089       -2.3461961967       -3.0405619799
 H       -20.7787407642       -2.9709348119       -4.1159305149
 H       -15.1566088003       -1.6639265789       -4.3589152380
 H       -15.9349880457       -3.2482768468       -3.9725333816
 H       -17.0205499282       -2.0659352766       -1.9148568432
 H       -16.2618308367       -0.6018219632       -2.3681414277
 H       -10.8006965193       -1.7848973118       -1.2382110073
 H       -10.8681561377       -0.4497862196       -2.4818896298
 H       -10.2400099559       -1.8082018570       -4.2489615787
 H       -10.7835588263       -3.3025708207       -3.3888459572
 H        -5.5242544682       -0.6949711896       -4.5899259516
 H        -5.6833620573        0.6925132504       -3.5340023168
 H        -6.0277474916        1.1549053982       -6.0930739533
 H        -7.1719773042        1.8321053506       -4.9651384519
 H        -7.9189572837       -0.0781957156      -10.4861077629
 H        -8.0426344032       -1.4156188648       -9.2744875403
 H        -6.0876020070       -2.3266997803       -9.9915518115
 H        -5.2728363559       -1.0638988912       -9.5659313914
 H        -1.6658453957       -1.4510044682      -11.3954305579
 H        -1.7162555673       -1.4125437114      -13.0725865938
 H        -1.8206056112       -4.2967551004      -12.5799961682
 H        -0.8169711173       -3.5301152382      -11.3288914218
 H         3.0193756603       -4.6764751975      -12.4378589679
 H         3.0486051679       -3.0763585575      -13.3924840002
 H         4.5997671305       -4.2673346242      -15.0302277594
 H         4.5961451853       -5.6479080387      -13.8874214257
 H         9.5473216481       -2.7210015749      -15.3897810704
 H         9.7218275032       -3.8341447859      -14.0313690754
 H         9.9571526581       -2.0556246683      -12.6338700507
 H         8.2714770567       -1.5316131918      -13.1281604396
 H         8.6153407187        2.5497603945      -14.2923305773
 H         9.2331840849        3.4648166759      -12.8030726306
 H         6.7115596847        3.3371128488      -12.5702687405
 H         7.2319304200        2.2894254107      -11.4432726855
 H         2.3522451512       -0.0181551453      -13.8775390235
 H         3.4592213996       -1.1819160985      -14.1741262219
 H         1.9992882006        0.4080245307      -16.4214218665
 H         1.7723506624       -1.1600949992      -16.2245071011
 H         4.3738425142        1.3569575158      -17.6931515805
 H         3.5682343212        2.0231116218      -19.0421433796
 H         5.9410547201        3.1711626533      -18.6304446892
 H         5.8991282242        2.3968295360      -20.0976531719
 H         8.4626476219       -0.7284059889      -21.6392762465
 H         6.7433677656       -0.2229331029      -21.5602427736
 H         7.1661446531       -1.9556079539      -21.4905017805
 H         9.1832869641        1.4343794636      -21.3686345474
 H         8.5806952307        2.8332371611      -20.3638357466
 H         7.4800484271        1.7240138784      -21.0669885999
 H        10.3183054520        0.3155324605      -18.9356691755
 H         9.3615016569        0.3917172439      -17.4747800571
 H         9.8986475034        1.8836652533      -18.2422972867
 H         4.3973869900       -2.7885181860      -18.3306553724
 H         3.5577538324       -2.3978585334      -19.9183432655
 H         2.7231107229       -3.0662933266      -18.4251821613
 H         1.4612392363        0.4618716150      -18.1176709877
 H         0.9357672623       -1.0860169553      -18.3879864647
 H         1.4799771323       -0.0968535879      -19.8591351695
 H         5.0484940855       -0.6057873140      -12.4886209207
 H         3.7788848382        0.2865835009      -11.6376384669
 H         5.3119186548        0.5348918601      -11.1168356975
 H         3.5247464018        2.6465698311      -12.2389896335
 H         4.2758765533        3.4257380260      -13.6139696971
 H         5.1599434537        3.1360968998      -11.9345616144
 H        12.0465856986        0.8424939663      -11.6424094439
 H        12.5291141176       -0.2117417271      -13.0192119788
 H        11.2846025738       -0.7062382743      -11.8211314101
 H        10.5896669226        1.8963510757      -15.1208527933
 H        11.9669577493        0.9563435946      -15.0648712773
 H        11.9582460491        2.2480732139      -14.0845324426
 H         7.4780906461       -5.4588206143      -11.7481680699
 H         7.8596903357       -3.7542398389      -11.9068663526
 H         8.9771706681       -5.0344151638      -12.6144110627
 H         6.6131996481       -6.6258123375      -14.0225944551
 H         8.1057079134       -6.3646881026      -14.6875409496
 H         6.6697088015       -5.7659617375      -15.5792362940
 H         0.8218326654       -4.9928212348      -11.5476591137
 H         1.4165873466       -6.3692999771      -12.3412269687
 H        -0.2875246179       -6.2317515132      -12.2259201176
 H        -1.3196236542       -5.3281689502      -14.6008039688
 H        -0.2147600202       -6.6609584776      -14.4369569377
 H         0.1257376477       -5.4792647786      -15.7426946751
 H        -3.1639291181       -0.1823405092      -13.9026453996
 H        -4.6611228227        0.6467890126      -13.8167701821
 H        -4.7352854884       -0.8937241528      -14.3061024054
 H        -3.4247728473        0.1686224647      -10.2199871570
 H        -4.4128019032        1.3654880445      -11.2349481304
 H        -2.8530900281        0.8733172396      -11.8162379999
 H        -9.7857438044       -0.6553054332       -8.1992853677
 H       -10.1666143336        0.9239503480       -8.8852198089
 H       -10.4629670361        0.5768521497       -7.1382685789
 H        -8.6991955797        2.9825405050       -6.6462729119
 H        -8.3428096959        3.0027100798       -8.4223706816
 H        -7.0986825974        2.6670412089       -7.1355891345
 H        -6.3794229733       -3.8827168068       -2.5792232285
 H        -5.8136121094       -2.2083892894       -2.1340115723
 H        -5.3848598971       -2.8796324878       -3.7119308220
 H        -7.6259795676       -3.9025512464       -4.9462068185
 H        -6.9089817758       -2.3147858065       -5.4243839485
 H        -8.6000878103       -2.3798158082       -5.3796594787
 H       -14.6050823538        0.5844651262       -0.6505884998
 H       -14.3627805608        0.4826581103       -2.3923102635
 H       -12.9575860850        0.6707648033       -1.2950026193
 H       -12.3031745981       -1.3041041818        0.3321598610
 H       -13.2183270125       -2.6606541671        0.4420634974
 H       -13.9048246621       -0.9610657068        0.7087528238
 H       -17.6318734689       -4.6537753337       -6.6256238338
 H       -16.3193880889       -3.6633284195       -6.0500928297
 H       -17.2740542290       -3.1798897759       -7.5332467416
 H       -20.2812492645       -1.7303150046       -5.5303448629
 H       -19.8369033627       -2.9211993464       -6.7940892246
 H       -18.9482971281       -1.4051279807       -6.8854812526
 H       -21.4785967022       -6.5234270655       -1.0007741832
 H       -21.8042039494       -4.9207823075       -0.1676949115
 H       -21.4659244321       -6.4820708689        0.7552066557
 H       -19.8535415860       -5.4623463580        1.9099658082
 H       -19.8898175309       -3.7264046015        1.3329713179
 H       -18.4108440145       -4.5983424189        1.4249840020
 Na      -16.7618615679       -4.7008074903       -1.7486975896
 Na        7.5791560412       -0.8032983814      -16.3186535666
