232

 C       -19.0441357491       -8.0068347418       -0.0346386773
 C       -18.7037744609       -6.5668183570       -0.2968767960
 O       -17.5559167334       -6.4269377252       -0.7457590338
 C       -19.7138591439       -5.3817579420       -0.0711009567
 C       -19.5166401992       -4.3295644630       -1.2003028966
 O       -18.6388236572       -3.4345626457       -1.1341861046
 C       -20.3838610614       -4.3429377178       -2.5439518975
 C       -19.8054273473       -3.2980314464       -3.5208748428
 C       -18.5335030418       -3.6831040020       -4.2779193139
 O       -17.7923659021       -4.6258149539       -3.9994440269
 C       -18.1618198108       -2.7591925841       -5.5375150368
 C       -17.2704568118       -1.6279311483       -4.8119515633
 O       -17.3691682836       -0.4949867060       -5.1365657235
 C       -16.2094276371       -2.0995324635       -3.8480465419
 C       -16.2078711547       -1.6295882972       -2.4739689926
 C       -14.8451237735       -2.2005354104       -1.7888772094
 O       -14.7355123441       -3.3860571862       -1.6120382642
 C       -13.6431060886       -1.2612531436       -1.3493184404
 C       -12.5745447345       -1.5239276817       -2.5965057638
 O       -13.1166006441       -1.8586147060       -3.6674576360
 C       -11.0578986701       -1.3896493531       -2.3042853570
 C       -10.2041656109       -2.2964985304       -3.2220355747
 C        -8.7824646412       -2.5560058190       -2.7591553426
 O        -8.5432151757       -3.2703276369       -1.7941884404
 C        -7.5241425299       -2.1118698083       -3.6212415327
 C        -7.3592222469       -0.6006264712       -3.4300772610
 O        -8.0007999472       -0.0762343553       -2.5351565196
 C        -6.3116689923        0.1173331054       -4.1400547405
 C        -6.7551649155        0.9179916586       -5.3925005067
 C        -8.0616825490        0.4347895440       -6.1479520458
 O        -8.8878365727       -0.2972312317       -5.6273106709
 C        -8.3158571892        0.9416953687       -7.6621062115
 C        -7.1079246562        0.3463877881       -8.5146683474
 O        -6.0042383452        0.7659310902       -8.3312074179
 C        -7.4433546933       -0.5144539482       -9.7289783802
 C        -6.1394672603       -1.2033677040      -10.2389696328
 C        -5.8216859024       -0.8858205434      -11.7010309563
 O        -6.7016203510       -0.6179221703      -12.5111038764
 C        -4.2984828167       -0.7812967102      -12.0656333025
 C        -3.5473047309       -2.1078568397      -11.8523674298
 O        -4.1414697963       -3.0758946402      -11.5542237990
 C        -2.0251566541       -2.1465637220      -12.3037255949
 C        -1.3862187654       -3.5211690827      -12.3347410275
 C         0.0227858336       -3.4105323791      -13.1841387100
 O         0.6604788056       -2.3530076492      -13.3756794315
 C         0.6396225885       -4.8268431889      -13.6604828499
 C         2.0582676389       -4.5763691027      -14.3411034368
 O         2.3122314742       -4.8433708003      -15.4717534394
 C         3.2361337772       -4.1278151942      -13.3495459368
 C         4.5847491490       -4.5305737240      -14.0330864039
 C         5.7327406915       -4.1187184471      -13.1780283047
 O         5.6731399191       -3.3399516838      -12.2555418713
 C         7.1847863407       -4.5839100799      -13.6974372016
 C         7.7712538402       -3.4356009059      -14.5222991212
 O         7.0253424624       -2.6851050403      -15.1629215214
 C         9.2431468523       -3.0332161753      -14.3097182038
 C         9.2150057526       -1.8120880303      -13.3309518572
 C         9.7321080135       -0.5077172894      -14.1165571515
 O         9.4517460691       -0.3953123760      -15.2942600814
 C        10.6169309073        0.6200499088      -13.4812103157
 C         9.6567840289        1.5827951091      -12.4871405930
 O         9.6857489543        1.4167456195      -11.3219262958
 C         8.6960281093        2.6505996309      -13.1416694177
 C         7.3498125678        2.4438477454      -12.5621240790
 C         6.5380639828        1.4057695390      -13.3779056401
 O         7.1567742800        0.5368925730      -13.9741459086
 C         4.9336009414        1.4631696191      -13.1823657991
 C         4.1487773403        1.0002803181      -14.5017188733
 O         4.3388354005        1.6293265134      -15.5039024380
 C         3.1112249625       -0.0913312780      -14.4735883382
 C         2.6571655681       -0.3846551051      -15.9024238964
 C         3.6733298276       -0.7712529795      -16.9816462870
 O         4.8165353770       -1.0983564207      -16.6774858520
 C         3.2915537692       -0.8961588883      -18.4763799060
 C         4.0708825432        0.1000040707      -19.3335618352
 O         4.3788356414       -0.1540656779      -20.4585151686
 C         4.4272236886        1.4772417920      -18.6783471859
 C         5.7491693731        2.1023663378      -19.2044557930
 C         7.0078442892        1.4831277357      -18.5200414781
 O         6.9773393264        1.3723099305      -17.2841852686
 C         8.2210683810        0.9049749252      -19.3182928755
 C         7.7354943947       -0.5566327803      -19.5484379068
 O         7.5049988299       -1.3728286219      -18.6486941595
 C         7.3901868281       -1.0228552007      -20.9774291194
 C         8.5185921385        1.7385878968      -20.6163101479
 C         9.5210258343        0.9110986069      -18.5487527764
 C         3.3592776512       -2.3685403748      -19.0408914815
 C         1.8470910127       -0.5636118220      -18.9265716383
 C         4.7041449896        0.6425905818      -11.8918722916
 C         4.4041566826        3.0108840916      -12.8934223941
 C        11.6585716226        0.0433683888      -12.4499333111
 C        11.4259765933        1.4666917559      -14.5952507392
 C         7.9781021433       -4.7590497493      -12.2806562400
 C         7.0792652833       -5.8985025076      -14.5493717648
 C         0.8163922685       -5.6526015261      -12.3689477592
 C        -0.2912602247       -5.5777559759      -14.7081464940
 C        -4.3139369768       -0.4047495984      -13.5633614265
 C        -3.7660648758        0.3241130671      -11.1893051857
 C        -9.7061060141        0.6229663825       -8.2083919385
 C        -8.2640309382        2.4662844567       -7.6520637103
 C        -6.3148503202       -2.6742088564       -2.8880786201
 C        -7.7009638479       -2.7634760955       -5.1054224205
 C       -13.9626103987        0.2653696843       -1.3150326972
 C       -13.1828174503       -1.7784212935        0.0373427200
 C       -17.3885206554       -3.6149857945       -6.5192400666
 C       -19.3515399650       -2.0783819629       -6.2670766255
 C       -21.1157478897       -5.9255667807       -0.0757877074
 C       -19.4009489839       -4.7024315150        1.3046749047
 H       -19.9558536455       -8.2459697487        0.5003916050
 H       -18.2437604899       -8.5953027336        0.3273656586
 H       -19.3120644326       -8.4551795603       -0.9886387091
 H       -21.3765236664       -4.0540834269       -2.2265551502
 H       -20.4241269401       -5.3311867973       -3.1265347747
 H       -19.6815464369       -2.3255428023       -3.0069047632
 H       -20.6372600844       -3.2178688796       -4.2600690201
 H       -15.2412337114       -1.7111397998       -4.3021942174
 H       -16.2202905270       -3.1551910452       -3.8594300563
 H       -16.9759994010       -1.8773042958       -1.8508562825
 H       -16.1511484643       -0.5202430503       -2.4429007071
 H       -10.9029200199       -1.6972800056       -1.2747001875
 H       -10.7861031485       -0.2799434951       -2.4583302818
 H       -10.2171568413       -1.8587413720       -4.2610064096
 H       -10.6850377162       -3.2619020189       -3.1734269728
 H        -5.5645344609       -0.6823326538       -4.3839329674
 H        -5.8381787918        0.8187211467       -3.4374838240
 H        -5.9599063524        0.9586361987       -6.1113234875
 H        -6.9820082492        1.9062000628       -5.1121858672
 H        -7.8602360639        0.1202382278      -10.4862659431
 H        -8.1671679511       -1.2651836752       -9.4844460341
 H        -6.1257258916       -2.2907395709      -10.1188657636
 H        -5.2437336525       -1.0803364211       -9.5605884524
 H        -1.4194013861       -1.2633665614      -11.9465311513
 H        -1.9571266645       -2.0185460894      -13.4256090545
 H        -2.1079016039       -4.1557091690      -12.8563125376
 H        -1.2460752774       -3.9690474460      -11.3786823902
 H         3.0676850715       -4.6775085996      -12.4443342484
 H         3.1755592797       -3.0142710701      -13.2895727312
 H         4.4533667340       -3.9555426736      -14.9516794938
 H         4.4957564850       -5.6090264858      -14.1586587711
 H         9.6943577100       -2.7370248224      -15.2745797152
 H         9.7103096701       -3.9400736304      -13.8593889530
 H         9.8427652532       -2.1874463536      -12.4968002807
 H         8.2236954877       -1.7163755802      -13.0379931648
 H         8.7583100638        2.5273579216      -14.2607781379
 H         9.2683392262        3.5476062889      -12.8380212783
 H         6.6935739753        3.2659808844      -12.2037710456
 H         7.5453256743        2.0179235638      -11.5753260837
 H         2.3247927450        0.1721338637      -13.7145568642
 H         3.5548095557       -0.9732777544      -13.9707065674
 H         2.0958376770        0.4353000445      -16.3512496491
 H         1.9075023072       -1.1528014704      -15.9309592176
 H         4.5278981808        1.4881417386      -17.5780482082
 H         3.5892767499        2.1374909959      -18.8973856877
 H         5.8794644225        3.1485620656      -19.0198868899
 H         5.7510596879        2.0592113185      -20.2980757417
 H         8.1692728666       -0.6163220925      -21.7146297839
 H         6.4209454367       -0.6820098323      -21.3077090423
 H         7.4334418415       -2.1006785110      -21.1018405623
 H         9.2351362956        1.1353808397      -21.1797592671
 H         9.0151240439        2.6571440422      -20.3932793522
 H         7.5696214848        1.9561942531      -21.2189333282
 H        10.3180109429        0.3655066165      -19.0831305398
 H         9.5541034057        0.5872586125      -17.5042930835
 H         9.9259733858        1.9673599809      -18.5447142295
 H         4.2707546033       -2.9061157513      -18.7458187918
 H         3.2754474452       -2.2364605073      -20.0804934581
 H         2.5581646134       -2.9982573658      -18.5529630354
 H         1.5239917074        0.4120836815      -18.4863819452
 H         1.1852424064       -1.2254519694      -18.3568692845
 H         1.7533277097       -0.5026384440      -20.0628239855
 H         5.0035327537       -0.3944515993      -11.9105246629
 H         3.6599619661        0.7206833069      -11.7474755779
 H         5.0178546744        1.0578478238      -10.9767378734
 H         3.4390934639        3.2989565249      -13.3589999385
 H         5.1661080416        3.6523104779      -13.3682144816
 H         4.4633503782        3.0244608446      -11.7919158642
 H        12.2484130216        0.7661560520      -11.8590146944
 H        12.4670091264       -0.4753035627      -13.0996944753
 H        11.2549389615       -0.6549512232      -11.6904222755
 H        10.7652559300        1.7858456323      -15.4504728734
 H        12.2317300623        1.0080078156      -15.0913766075
 H        11.9362305968        2.2982742412      -14.2850122402
 H         7.5874132916       -5.6054746348      -11.6901085045
 H         8.0767257165       -3.7989189330      -11.7369340820
 H         8.9295262580       -5.1435996460      -12.5706579273
 H         6.5211499536       -6.7404963309      -13.9268255431
 H         7.9557913972       -6.4550734994      -14.8956543699
 H         6.4908950014       -5.7691820408      -15.4693733461
 H         1.3949445306       -5.1667102136      -11.5785806270
 H         1.3183146954       -6.5424254263      -12.5703402821
 H        -0.1350092431       -5.9788176377      -11.9904487029
 H        -1.3737361351       -5.3725680273      -14.5577022737
 H        -0.2496633015       -6.7094678741      -14.5356151962
 H        -0.0063265805       -5.4332717059      -15.7712650528
 H        -3.3909053551       -0.3121528701      -13.9753989873
 H        -4.8199678292        0.5483199687      -13.8195582914
 H        -4.8989236503       -1.1118940236      -14.1281435659
 H        -3.4611815402        0.0147057647      -10.1843467159
 H        -4.6000376841        1.0200403292      -11.2037366429
 H        -2.9502852245        0.8195215326      -11.6937527628
 H        -9.9872587823       -0.4163681620       -8.3728529005
 H        -9.9162750886        1.2005943356       -9.1729957249
 H       -10.4247200408        1.0040774153       -7.4617797430
 H        -9.0961672946        2.8105572155       -7.0215164444
 H        -8.3652759467        2.9184753940       -8.6497052480
 H        -7.4220142647        2.8712801930       -7.1567943129
 H        -6.5029089199       -3.5879857247       -2.3994764204
 H        -5.9896317171       -1.9142994689       -2.1686156097
 H        -5.4397214649       -2.8555374214       -3.5566087533
 H        -7.3982811180       -3.7794720524       -5.0448682826
 H        -7.0694602880       -2.2416062567       -5.8738282199
 H        -8.7806797743       -2.6057686437       -5.4100356678
 H       -14.6882527351        0.3995890919       -0.5121116857
 H       -14.2697346502        0.7584636495       -2.2025924381
 H       -13.0050206804        0.7070855781       -0.8242726028
 H       -12.3464704156       -1.2158549595        0.5867174132
 H       -12.7369977118       -2.7550194612       -0.0326047702
 H       -14.0197407553       -1.6215580735        0.7736284628
 H       -17.8415453471       -4.5531152562       -6.5912529356
 H       -16.3760085581       -3.7914650411       -6.0258040484
 H       -17.3171828686       -3.1508451363       -7.5293725135
 H       -20.0819320455       -1.5967906188       -5.5742485636
 H       -19.8884725421       -2.8644681807       -6.8480620085
 H       -18.8473929267       -1.3763600575       -6.9216607121
 H       -21.2577399836       -6.5635024743       -0.9237150679
 H       -21.9267141815       -5.1511791901        0.0928770805
 H       -21.1355931206       -6.6834903995        0.7416860312
 H       -19.8429625686       -5.3117198635        2.0389963514
 H       -19.8664804499       -3.7376217176        1.2737616486
 H       -18.3187383780       -4.5236020424        1.3771842053
 Na      -16.6566691845       -4.4882638069       -1.7563407461
 Na        7.3110804668       -0.7692547573      -16.2969926052
