232

 C       -18.7984476766       -8.0450223658       -0.1629810784
 C       -18.5209811626       -6.5600614954       -0.2977029930
 O       -17.4108613582       -6.1828592805       -0.5739709938
 C       -19.6942348849       -5.3488546550        0.0319303252
 C       -19.4923812214       -4.3043151496       -1.1262068508
 O       -18.6110615786       -3.4398199246       -1.1408517920
 C       -20.3081590200       -4.5239983716       -2.5065110107
 C       -20.0322815547       -3.4524393806       -3.6020384004
 C       -18.6681149063       -3.6674802783       -4.2056783582
 O       -17.9751651934       -4.5863469406       -3.7505318500
 C       -18.2076466477       -2.7771381172       -5.3066723816
 C       -17.1143014382       -1.5881095929       -4.7530571177
 O       -17.5011184402       -0.4938668036       -4.9111876011
 C       -15.7577915046       -2.0166126778       -4.1073121779
 C       -15.6740531061       -1.4708729062       -2.7405561275
 C       -14.6640715201       -2.1124737241       -1.8043716727
 O       -14.9607746679       -3.2148528844       -1.4007195652
 C       -13.3756532793       -1.3276367532       -1.4114608518
 C       -12.3456619837       -1.5957168362       -2.5458795082
 O       -12.8270193498       -2.0492632313       -3.6033481890
 C       -10.8742502924       -1.3636126171       -2.4346979227
 C       -10.1057009698       -2.0924933283       -3.5371212097
 C        -8.7660750121       -2.6335224029       -2.9398835903
 O        -8.8320370466       -3.4434323621       -2.0227830846
 C        -7.4946661293       -2.1108634786       -3.6165390196
 C        -7.5347189763       -0.4177491867       -3.5555894274
 O        -8.3545687046        0.1271996310       -2.8413367641
 C        -6.4484733256        0.3025226851       -4.4357261104
 C        -6.9231662922        1.2483402159       -5.5630028766
 C        -8.1703035018        0.7500266647       -6.3818880362
 O        -9.1314449789        0.1311797870       -5.9608311532
 C        -8.2969469354        1.1236629500       -7.9304069965
 C        -7.1552918174        0.4563971342       -8.7142359819
 O        -6.0481408713        0.7806591255       -8.4553454467
 C        -7.4728844510       -0.6488910563       -9.7819256989
 C        -6.2967970447       -1.3967832547      -10.3308535221
 C        -5.8914344380       -0.8275052206      -11.7469909023
 O        -6.7091192354       -0.3070126991      -12.4727017422
 C        -4.3158901363       -0.8435212358      -12.2040839934
 C        -3.5502151811       -2.3361596155      -11.9495613157
 O        -3.9899408576       -3.0930485431      -11.1541114994
 C        -2.1709511150       -2.3157832154      -12.7081391782
 C        -1.4931462917       -3.7337299139      -12.5086727617
 C        -0.0371130588       -3.6652702781      -12.9762631417
 O         0.4860422771       -2.5435875352      -13.1963525191
 C         0.6531473688       -4.9223588891      -13.5135334956
 C         2.0165738514       -4.6734590801      -14.3074651243
 O         2.0885895691       -5.0017945505      -15.4536530158
 C         3.1887251979       -3.9475673860      -13.5010533990
 C         4.5961538036       -4.3794776614      -14.0807345743
 C         5.7253875477       -4.2357893587      -13.0345584298
 O         5.6606447198       -3.6942057317      -11.9543995905
 C         7.1294365950       -4.6537221914      -13.4949346740
 C         7.7505012071       -3.5279834133      -14.3667224942
 O         7.0261470442       -3.0626348081      -15.2557891821
 C         9.2057118960       -3.0724231416      -14.0702803921
 C         9.2515951600       -1.6711365162      -13.3028467349
 C         9.7285384017       -0.5347925290      -14.1195533026
 O         9.0984189404       -0.2445623878      -15.1452322542
 C        10.7866755212        0.5174785443      -13.4946368969
 C         9.8548637192        1.3190431406      -12.5479720901
 O         9.8130844945        1.0735468606      -11.3880602162
 C         8.8649463568        2.2737078419      -13.2982947899
 C         7.4324304367        2.5426552431      -12.7393274460
 C         6.3871137277        1.5998920796      -13.3821449362
 O         6.7805946941        0.5089327925      -13.7534797873
 C         4.8477395696        1.8808006621      -13.3655115256
 C         4.1942587851        1.2101663420      -14.6700648606
 O         4.4193360908        1.7574521597      -15.6804083589
 C         3.6237480231       -0.1383749032      -14.5106108514
 C         2.7063488689       -0.4338241674      -15.6969353618
 C         3.6706254431       -0.9441764031      -16.8844328991
 O         4.6750825752       -1.5960866893      -16.6653328766
 C         3.2442174058       -0.8306934723      -18.3890544033
 C         4.0492785329        0.1444639205      -19.3042471267
 O         4.5075369731       -0.3056649795      -20.2912122688
 C         4.2897843109        1.5303651949      -18.7196773092
 C         5.6155883181        2.1400272634      -19.4399909316
 C         6.8203722349        1.5501147580      -18.6675604739
 O         6.9415197618        1.6539871921      -17.4444231312
 C         8.1374303388        0.9111472571      -19.2333117730
 C         7.8092673000       -0.6892291628      -19.3293649606
 O         7.7947662732       -1.2594518460      -18.1993460018
 C         7.3707100702       -1.2819730126      -20.6082715084
 C         8.4180252637        1.6375048358      -20.6193149817
 C         9.3180082176        1.1964738660      -18.2958285513
 C         3.4710359338       -2.2642565166      -18.8737518544
 C         1.6618163345       -0.6096837438      -18.4171567844
 C         4.2889831801        1.2131432777      -11.9986188531
 C         4.6282711601        3.4712676867      -13.2010267627
 C        11.9391965267       -0.2643156979      -12.7508832246
 C        11.3922863244        1.3747009695      -14.6101891844
 C         7.9221405866       -5.0554164143      -12.1804834398
 C         7.2088697448       -5.9361203462      -14.5072009152
 C         0.7266891047       -6.0028905105      -12.3589019352
 C        -0.3052741025       -5.5553930568      -14.5636099744
 C        -4.1923404214       -0.2964441272      -13.6875885766
 C        -3.4878634145        0.1669966055      -11.2987812734
 C        -9.6738058036        0.6935263430       -8.3079365557
 C        -8.1655738548        2.6376511884       -8.0916089125
 C        -6.1763879648       -2.6020651543       -2.9029846823
 C        -7.5819101701       -2.5721466857       -5.1197036134
 C       -13.6405481442        0.1771237658       -1.0637020943
 C       -12.8723493624       -1.9709594382       -0.0813574894
 C       -17.2871491814       -3.5865109869       -6.3255724227
 C       -19.3356394879       -2.0737109715       -5.9956419027
 C       -21.1624272803       -5.8847355968        0.1076255864
 C       -19.2263229511       -4.8741318294        1.4206860392
 H       -19.5522297244       -8.3728406602        0.6246138223
 H       -17.8648052900       -8.5635776712       -0.0580861599
 H       -19.2360182589       -8.4815028514       -1.0536313014
 H       -21.3543326757       -4.6053308052       -2.2121939643
 H       -20.0564869454       -5.5818973316       -2.8168062573
 H       -20.3666641599       -2.5736581168       -3.1232503703
 H       -20.6932912832       -3.8019962269       -4.3893810989
 H       -15.0896908402       -1.5806273680       -4.8133901979
 H       -15.7514676526       -3.1208716937       -4.1613025572
 H       -16.6235087738       -1.7457409025       -2.2354736719
 H       -15.5753423601       -0.3599127016       -2.6642317013
 H       -10.5253912957       -1.7139440859       -1.4383916008
 H       -10.7037865768       -0.3290492330       -2.6269183634
 H        -9.9188624938       -1.3230530063       -4.3054346824
 H       -10.7140240085       -2.9189408525       -3.8468075493
 H        -5.8661264373       -0.5412342359       -4.8108830297
 H        -5.8091440275        0.9145115694       -3.8297448931
 H        -6.0822456749        1.5567025830       -6.2557902204
 H        -7.3594379034        2.1705916221       -5.1247755776
 H        -8.0958819977       -0.2039924774      -10.6604949088
 H        -8.1765786828       -1.3700338897       -9.3387309222
 H        -6.4256567182       -2.4878176324      -10.3165492170
 H        -5.4474424381       -1.2833226808       -9.6456788091
 H        -1.4180175590       -1.5892978296      -12.5557680484
 H        -2.3189648193       -2.2033028190      -13.7492296413
 H        -1.9501570580       -4.6500858486      -12.9293361689
 H        -1.4885277438       -3.9679491263      -11.3827069621
 H         3.1127820982       -4.0540099787      -12.3932224453
 H         3.0158832182       -2.8970598717      -13.7547146645
 H         4.8363747039       -3.4923965099      -14.6433296660
 H         4.4559641122       -5.3216660346      -14.5604852215
 H         9.7825333416       -3.0198780125      -14.9792171787
 H         9.5767096523       -3.8295245847      -13.4605287328
 H         9.7874393364       -1.8802801199      -12.3560377656
 H         8.1802431446       -1.3684965032      -13.0822963882
 H         8.8659483572        1.9016205097      -14.3778628008
 H         9.3637557742        3.2345744328      -13.3786822781
 H         7.1980434687        3.5444950403      -12.8572396579
 H         7.2362561193        2.5280519926      -11.6625021096
 H         3.2816555658       -0.4863057812      -13.6059955076
 H         4.5575385152       -0.7269492440      -14.5716984544
 H         2.1612456547        0.4616840997      -16.0269716786
 H         1.9727779935       -1.2572551491      -15.5087314051
 H         4.3957521623        1.4156327066      -17.6600123854
 H         3.4830793055        2.2846280393      -18.9411212710
 H         5.5846598858        3.2324394021      -19.4673304843
 H         5.6320413720        1.8604232503      -20.4998433369
 H         7.6836940365       -0.7699769232      -21.5650918993
 H         6.2737789683       -1.3866623954      -20.5979498123
 H         7.8302199679       -2.2148580215      -20.7944523008
 H         9.3685328673        1.4214407131      -21.1427561742
 H         8.3298944120        2.6763654884      -20.4343231648
 H         7.5896062357        1.3762769586      -21.2944576985
 H        10.2208398425        0.8797323138      -18.7467742203
 H         9.2282302832        0.7900445281      -17.3227089619
 H         9.5701060056        2.2432423417      -18.1921508800
 H         4.5454302351       -2.6043202343      -18.8475370277
 H         3.1036241616       -2.2036931526      -19.8557963333
 H         2.7944321540       -2.9120428967      -18.2752547802
 H         1.4427007216        0.3884762530      -18.0513307975
 H         1.3021837008       -1.3200355439      -17.7246082907
 H         1.2085735016       -0.6753924029      -19.3784923956
 H         4.6229203590        0.1402534195      -11.8858127233
 H         3.2570233754        1.4693483570      -11.7182515344
 H         4.8764977570        1.5359804387      -11.1136121601
 H         5.4384353867        3.9593301471      -13.6524732059
 H         4.5629521649        3.7433516687      -12.1231575035
 H         3.6720027094        3.7547711139      -13.6170869788
 H        12.9307510451        0.0972021065      -12.9830353338
 H        12.1579509654       -1.2649093812      -13.0805188863
 H        11.7345990895       -0.1457204127      -11.7372497820
 H        10.5770199378        1.8421457758      -15.2801967466
 H        12.1875294839        1.0071150664      -15.2906287368
 H        11.9143102947        2.2485473777      -14.2188861294
 H         7.5195188378       -5.9079624416      -11.7151403361
 H         8.0059258535       -4.1526228681      -11.5820932588
 H         8.9123364393       -5.4416411471      -12.4440894715
 H         6.6968411716       -6.8127648088      -14.0873213983
 H         8.2351595453       -6.2064223253      -14.7626296771
 H         6.7444018005       -5.8491530152      -15.4723152606
 H         1.2535353176       -5.7835984162      -11.4041852720
 H         1.1295824624       -6.9715349480      -12.6908146477
 H        -0.3522060128       -6.1621740875      -12.0665398723
 H        -0.9004696201       -6.2236287261      -14.0340215776
 H         0.1791970231       -6.1675678477      -15.3159201727
 H        -0.9776992885       -4.8850453034      -15.0753582656
 H        -3.3429561595        0.2685431017      -14.0430136543
 H        -5.0185832495        0.4286114097      -13.8834943979
 H        -4.4601516725       -1.1158063394      -14.3969369170
 H        -3.5448265322       -0.1442472816      -10.2157622636
 H        -3.8365491179        1.1569554973      -11.4268387374
 H        -2.4369007144        0.0143822619      -11.5511819674
 H        -9.8086785816       -0.2934063316       -7.9898127702
 H        -9.7975581293        0.7086603105       -9.3767422282
 H       -10.4463599640        1.3253398048       -7.8635633822
 H        -8.6902836146        3.2696975428       -7.3402996313
 H        -8.4416934785        2.8787323531       -9.1400055523
 H        -7.1245943490        2.8845299115       -8.1335846206
 H        -6.0350244189       -3.5917385406       -3.3826408869
 H        -6.2435081982       -2.6950145955       -1.8369296018
 H        -5.2409600114       -2.0470976362       -3.1065600759
 H        -7.6488152280       -3.6082455105       -5.2543587838
 H        -6.6489288715       -2.3316605104       -5.5501312148
 H        -8.4320083839       -1.9675755847       -5.4994251511
 H       -14.3752754021        0.3159765576       -0.3098777970
 H       -13.8881118988        0.6507492370       -1.9592307276
 H       -12.7308491320        0.6872751824       -0.6145360265
 H       -11.9774846720       -1.5022501687        0.3459338519
 H       -12.6781840139       -2.9751049124       -0.1820443494
 H       -13.6426255447       -1.8198487353        0.6679897451
 H       -17.7375990270       -3.8849012185       -7.2075643503
 H       -16.9414254532       -4.4757430370       -5.7397949850
 H       -16.3976240618       -2.9956335694       -6.5147430222
 H       -19.7314216390       -1.2848940151       -5.2540523526
 H       -20.0419445689       -2.8271891172       -6.2448533838
 H       -18.9124839350       -1.6266480350       -6.8756251783
 H       -21.3431943254       -6.5467133501       -0.6674110550
 H       -21.7670180045       -4.9826933196        0.0105665474
 H       -21.4257456572       -6.4139428193        1.0689976782
 H       -19.0328393140       -5.7423884867        2.0447052272
 H       -20.0295175231       -4.3232555036        1.9656752935
 H       -18.3638514312       -4.2530485935        1.1671791827
 Na      -16.7432554203       -4.4777686616       -1.9572258076
 Na        6.7629321148       -0.6124237609      -15.9896978333
