232

 C       -18.8178812770       -7.9652619728       -0.1312379910
 C       -18.5294169288       -6.5487640489       -0.3330279749
 O       -17.3462374611       -6.1925179141       -0.5630284072
 C       -19.5522565553       -5.3661023076       -0.0381057182
 C       -19.5289035271       -4.3143669437       -1.1196340423
 O       -18.7499669846       -3.3217822745       -1.1481139590
 C       -20.4101772461       -4.5408566726       -2.4157575184
 C       -20.0691513643       -3.5497604640       -3.5220534326
 C       -18.6449372490       -3.7179097572       -4.0636656574
 O       -17.8459029403       -4.6049017018       -3.7475484957
 C       -18.1249927164       -2.7029101085       -5.2103399529
 C       -17.1675852790       -1.5625400771       -4.7940011294
 O       -17.5157579015       -0.4105974647       -4.7169301588
 C       -15.7846128053       -2.0145417471       -4.2308460635
 C       -15.5356263190       -1.3713380611       -2.8950062930
 C       -14.6356514527       -2.0958275837       -1.7556607951
 O       -14.9155173930       -3.1564889931       -1.2227490330
 C       -13.2994280529       -1.4358763992       -1.3747698286
 C       -12.3469785324       -1.6571994284       -2.5897679187
 O       -12.8596007293       -2.0101679494       -3.6365661669
 C       -10.8625185204       -1.3342972350       -2.4704209685
 C       -10.0413051441       -1.9554473844       -3.6435947196
 C        -8.7725218944       -2.5554849112       -3.0755582285
 O        -8.7002817053       -3.3850205971       -2.1953499631
 C        -7.4897370461       -1.9784302817       -3.6831438526
 C        -7.5000371151       -0.4599647027       -3.6852290688
 O        -8.3694731248        0.1844333449       -3.1301484352
 C        -6.4712643702        0.2885962311       -4.4656322035
 C        -7.1492389895        1.3442292639       -5.4739088312
 C        -8.2357824162        0.8066418166       -6.4157297031
 O        -9.1468795041        0.1649144679       -5.8382110114
 C        -8.3092387878        1.1398887392       -8.0234688805
 C        -7.1487272056        0.3928399765       -8.7604287514
 O        -5.9668973939        0.7192279477       -8.5904503213
 C        -7.4714190735       -0.7547186388       -9.7407046044
 C        -6.1548175542       -1.3755389346      -10.4081832316
 C        -5.7207230829       -0.7810945088      -11.7411812273
 O        -6.5929960534       -0.2636107619      -12.4614008206
 C        -4.2948238209       -0.8394299637      -12.1747199947
 C        -3.6404252987       -2.2077438710      -12.0406302847
 O        -3.9301164645       -2.9799979027      -11.1443788799
 C        -2.3820369491       -2.4811115454      -12.8135733573
 C        -1.5092354191       -3.8049935652      -12.4475960840
 C        -0.0354585374       -3.7116154605      -13.1085280122
 O         0.5975122626       -2.6671738447      -13.0786592355
 C         0.5245205925       -5.0742565038      -13.5690291517
 C         1.9721283662       -4.7176955173      -14.2562662881
 O         2.1979967966       -4.9702017789      -15.4286564896
 C         3.0300377516       -3.9492609859      -13.4741694819
 C         4.4958808600       -4.3019915598      -14.0167517254
 C         5.7020455802       -4.1874785457      -13.0684949929
 O         5.6160885728       -3.9532525978      -11.8954729650
 C         7.1739837774       -4.7376638691      -13.5013656098
 C         7.7982172658       -3.6103102956      -14.3290947030
 O         7.1104861960       -2.9940949848      -15.1401059842
 C         9.2243554238       -3.0609925680      -14.0625721339
 C         9.1660305303       -1.7250209618      -13.2697014500
 C         9.6578466126       -0.5340109540      -14.1970200764
 O         8.9868521566       -0.1495182072      -15.1364119017
 C        10.8041064055        0.4202497768      -13.6152105627
 C         9.7532390722        1.2279203979      -12.5905410590
 O         9.7745275075        0.9921552686      -11.4077502299
 C         8.8353191713        2.1588134257      -13.3766990041
 C         7.5094647750        2.5165044605      -12.7587130370
 C         6.4006113300        1.5965548232      -13.2622870363
 O         6.6795451799        0.5115439123      -13.7902041496
 C         4.9052951128        2.0576590117      -13.3251490912
 C         4.3293567737        1.3086935771      -14.6238755043
 O         4.3277692905        1.7918166225      -15.7529404778
 C         3.7481034638       -0.0703559446      -14.4133193004
 C         2.9803686781       -0.4512746326      -15.6778889192
 C         3.7051778470       -1.0048222264      -16.7745065130
 O         4.7869310114       -1.6063260642      -16.6154316029
 C         3.0980118503       -0.9872425851      -18.2775692060
 C         4.0682101424        0.1170681405      -19.2235927750
 O         4.4669051943       -0.2873297126      -20.3330179955
 C         4.3052614849        1.5773755975      -18.8823197404
 C         5.7012724504        2.1164333938      -19.3731306089
 C         6.7942964781        1.6053596301      -18.4795098703
 O         6.6977965927        1.6927624300      -17.2632870090
 C         8.0165581507        0.9086363479      -19.2059014403
 C         7.7953340295       -0.6661707779      -19.1886026522
 O         7.7498163786       -1.2617023347      -18.1485512214
 C         7.5531820948       -1.4703053335      -20.4546963581
 C         8.4025654126        1.5222964310      -20.6796106365
 C         9.2371025179        1.3633904344      -18.3527870440
 C         3.2514806792       -2.4151239474      -18.8732230538
 C         1.6198019437       -0.5628917111      -18.4139480816
 C         4.2601190615        1.4647481901      -11.9922530496
 C         4.5937081631        3.5861197904      -13.3023656268
 C        11.9939876866       -0.2944485052      -12.8576326786
 C        11.4751421035        1.3492255011      -14.6571498437
 C         7.8702709831       -5.0277316131      -12.2271212697
 C         7.1279737403       -5.9516392075      -14.4621309228
 C         0.7605300686       -5.9569492290      -12.3389386976
 C        -0.4683472120       -5.7131374293      -14.6158042513
 C        -4.2096363826       -0.3900179206      -13.6349804444
 C        -3.5983124537        0.1828609346      -11.2438593987
 C        -9.7631530995        0.8543119570       -8.5013491235
 C        -8.1465818733        2.7268372595       -8.3019061903
 C        -6.3021211830       -2.5361462522       -2.8369638877
 C        -7.5406859994       -2.5353313959       -5.1124900119
 C       -13.3642552266        0.0424057908       -1.1289937636
 C       -12.7934505799       -2.0365397955        0.0540399714
 C       -17.3318225787       -3.6667063742       -6.2673752419
 C       -19.3213131636       -2.0547310258       -5.9929310518
 C       -21.0265498787       -5.9609757707        0.0917071964
 C       -19.1837722242       -4.8584733604        1.4031097421
 H       -19.3284780053       -8.2352998154        0.7448773476
 H       -17.9294286887       -8.5742925544       -0.2634811390
 H       -19.4878804890       -8.3266888018       -0.9278168117
 H       -21.4456912999       -4.6196095708       -2.0829958332
 H       -20.1762456395       -5.6445640153       -2.7039369535
 H       -20.1907410052       -2.6274408152       -2.9591677161
 H       -20.8042270048       -3.7136487568       -4.2935640559
 H       -15.0736423832       -1.6103286845       -4.9988433009
 H       -15.8252828312       -3.0450317426       -4.2873417991
 H       -16.4344610575       -1.2304148400       -2.4279315866
 H       -15.0904144497       -0.3605359157       -3.0117203116
 H       -10.5483777178       -1.8475011207       -1.5794915268
 H       -10.7492810117       -0.1986690896       -2.4276634145
 H        -9.7571056866       -1.1754168790       -4.3628253587
 H       -10.7082382162       -2.6942703441       -4.0241670376
 H        -5.8294277016       -0.4244971740       -5.0128027579
 H        -5.8485650998        0.8699657880       -3.7901601080
 H        -6.3821391128        1.8730679863       -6.0077178254
 H        -7.7336956323        2.0679067840       -4.9767919045
 H        -8.2168321595       -0.4234475706      -10.4992792876
 H        -8.0213642324       -1.5329674838       -9.1621561304
 H        -6.2805640554       -2.4559809222      -10.5887455192
 H        -5.2876381099       -1.3679079629       -9.6453069328
 H        -1.6133495400       -1.7107340347      -12.7534052049
 H        -2.4832235265       -2.4656021532      -13.9023603583
 H        -1.8628259939       -4.8599949408      -12.5773866117
 H        -1.2762627413       -3.7925044984      -11.3795361646
 H         3.0281341466       -4.2399717601      -12.4219061246
 H         2.7766145944       -2.8414547919      -13.4625331188
 H         4.6854978632       -3.8917742655      -14.9717257444
 H         4.3806246308       -5.3472247687      -13.9058160631
 H         9.7072236758       -2.8656455881      -14.9846332444
 H         9.8069277852       -3.8449312905      -13.5454309659
 H         9.6464892434       -1.9636346752      -12.2634292258
 H         8.1377449232       -1.4858818689      -13.0817280898
 H         8.8350046533        1.7384773206      -14.4023093741
 H         9.3596382311        3.1769742057      -13.5227297161
 H         7.2983298780        3.5984353277      -12.8755158178
 H         7.4507964468        2.5383308684      -11.7091685397
 H         3.0320097876       -0.1603231451      -13.5818702999
 H         4.5066486577       -0.7316457566      -14.0931455484
 H         2.4449075062        0.4065338086      -16.0584263036
 H         2.3024689600       -1.2692480276      -15.4870050688
 H         4.1074320771        1.8458177481      -17.8284500112
 H         3.6764785819        2.1506747276      -19.5592521707
 H         5.5739811563        3.1464417193      -19.1401035330
 H         5.8687057725        2.1064316531      -20.4424560549
 H         7.9389161362       -1.1015113869      -21.4367146028
 H         6.4772028702       -1.6032481917      -20.5852330921
 H         8.0788225845       -2.4597095810      -20.4657908701
 H         9.3792492974        1.1700487054      -20.9191130765
 H         8.4603369693        2.5786568840      -20.5788912096
 H         7.7501123851        1.2231019710      -21.6335256648
 H        10.2332352929        1.2442162486      -18.7573733612
 H         9.2148970621        1.0027864858      -17.3293696574
 H         9.2309598648        2.4579962464      -18.2759543826
 H         4.3029109804       -2.5719739379      -19.0352679365
 H         2.7956473595       -2.3126983923      -19.8445462410
 H         2.7195079894       -3.2252314726      -18.2639922748
 H         1.2800285765        0.3310810185      -17.8965621003
 H         1.1664180028       -1.4567515716      -18.0120878095
 H         1.2875159456       -0.4642893964      -19.5069728745
 H         4.3987267213        0.4137335439      -11.9235454012
 H         3.2077882723        1.7707638651      -12.0017326790
 H         4.6973180896        1.7258468049      -11.0110911235
 H         5.5955664259        4.0977822986      -13.2869632141
 H         3.9698366543        3.8877033491      -12.4874985902
 H         4.0767618218        3.9179925821      -14.2111976488
 H        12.8850269423        0.1750555542      -13.1552459370
 H        12.3019600239       -1.2497518045      -13.2998115590
 H        11.8718794059       -0.2718494173      -11.7602854203
 H        10.8025076897        2.0208036955      -15.2778680800
 H        12.2134020575        1.0030392061      -15.3719341780
 H        12.0383107624        2.0880854831      -14.0844584573
 H         7.4408915716       -5.8917239674      -11.6945872388
 H         7.8653915742       -4.0733585886      -11.6975567599
 H         8.8608937043       -5.3155299460      -12.3941877736
 H         6.3492642906       -6.6369663215      -13.9709304405
 H         7.9963785571       -6.5021139377      -14.8355292716
 H         6.5348519637       -5.7213417333      -15.3457249831
 H         1.4946920509       -5.5488175467      -11.5707255055
 H         1.2468725982       -6.8518574343      -12.6905312690
 H        -0.1452994873       -6.2084128231      -11.7555401782
 H        -1.1108787436       -6.6040885139      -14.2962195779
 H         0.0356741025       -5.9853349753      -15.5812082524
 H        -1.1882627463       -4.9371363273      -14.8988036839
 H        -3.3038184902       -0.0221383383      -13.9766947773
 H        -4.8970188874        0.4717783387      -13.8937328839
 H        -4.5315820849       -1.2117464047      -14.2843832095
 H        -3.8690844536        0.0043762538      -10.2103966920
 H        -4.0187235139        1.1819143747      -11.5592953158
 H        -2.5194795658        0.0894126530      -11.3135112186
 H       -10.0045015676       -0.2066186813       -8.4782219693
 H        -9.9251727043        1.2382688048       -9.5610947852
 H       -10.4384794198        1.3763619562       -7.8638548367
 H        -8.6443989201        3.3639348450       -7.5300530007
 H        -8.5258554470        2.9504535270       -9.3257905698
 H        -7.0896638600        3.0124757030       -8.4478378438
 H        -5.9680509474       -3.3837440729       -3.3624020548
 H        -6.5969083004       -2.8514945734       -1.7751498914
 H        -5.3935506003       -1.8472938081       -2.7212059344
 H        -7.9832624503       -3.4894760768       -5.0979647614
 H        -6.5189301440       -2.7273911327       -5.4330274782
 H        -8.1613807283       -1.8513998775       -5.6799979416
 H       -13.9535345480        0.3421201083       -0.2903350530
 H       -13.6324136258        0.5409738815       -2.0315307984
 H       -12.3495218013        0.4137093990       -0.8727600028
 H       -11.7252590475       -1.9457027728        0.2741832242
 H       -13.0616243619       -3.1316594953       -0.0124613406
 H       -13.3511165527       -1.6764081084        0.9161084832
 H       -17.9895189248       -3.8061378083       -7.0977990100
 H       -17.1788076429       -4.6612354275       -5.8261217768
 H       -16.3552778681       -3.3063148037       -6.6310706195
 H       -19.8330151475       -1.4927014746       -5.2930885009
 H       -19.9103020187       -2.9795367562       -6.3848292867
 H       -18.9451496136       -1.4286231184       -6.8287024371
 H       -21.3086923726       -6.6337834493       -0.7746017403
 H       -21.7499830083       -5.0780394381        0.2085590777
 H       -21.0593506008       -6.5358614034        0.9946575627
 H       -19.0211851926       -5.6111892928        2.1260820841
 H       -20.0191163164       -4.3302595855        1.7394533398
 H       -18.3388360569       -4.1805070028        1.1737852637
 Na      -16.7576114543       -4.5624805363       -1.9535460277
 Na        6.8477385739       -0.6128744654      -15.8744635978
