232

 C       -18.6658943518       -8.1313980146       -0.0111031505
 C       -18.4955266846       -6.6518982827       -0.3030666373
 O       -17.3481624737       -6.3175763335       -0.6672896275
 C       -19.5094240765       -5.4303438027       -0.0740753315
 C       -19.4696265807       -4.3772067637       -1.1589609063
 O       -18.7608429362       -3.3311535540       -1.0733667102
 C       -20.3080866935       -4.5245402643       -2.4265432444
 C       -20.0056788024       -3.4568665548       -3.4985374955
 C       -18.6681624215       -3.6934444450       -4.0883030674
 O       -17.9130807307       -4.5570807169       -3.6195917541
 C       -18.1448795603       -2.8459618780       -5.2902936736
 C       -17.2562588525       -1.7566964304       -4.4480198260
 O       -17.7179036387       -0.6630408592       -4.2229333148
 C       -15.9403055416       -2.2267994737       -3.8032554794
 C       -15.4533941361       -1.1789226263       -2.9270244837
 C       -14.6361112273       -1.8347126384       -1.7802887980
 O       -15.1108548757       -2.7621968776       -1.1760617885
 C       -13.1423923935       -1.4116263656       -1.3635229612
 C       -12.2898578646       -1.7193828136       -2.6795113826
 O       -12.8528797274       -2.2004435892       -3.6671921938
 C       -10.8047591709       -1.4895889916       -2.6903961078
 C        -9.9795648465       -1.9027988136       -3.9201479276
 C        -8.6353078923       -2.4478881980       -3.4037870933
 O        -8.5926634011       -3.3001471355       -2.5289562265
 C        -7.3521289130       -1.7871538961       -3.9718088151
 C        -7.5551838407       -0.3008853242       -4.1712802217
 O        -8.1852011438        0.3550366406       -3.3394660417
 C        -6.6021493413        0.4171505860       -5.0592536327
 C        -7.3407534869        1.5619226808       -5.7672917759
 C        -8.3479626218        0.9621961505       -6.7576178127
 O        -9.1716390446        0.0898374779       -6.3634686400
 C        -8.2748362723        1.2905083114       -8.2850018267
 C        -7.0186316722        0.4395478809       -8.8529451203
 O        -5.8478988450        0.6323278303       -8.6026024664
 C        -7.3558200523       -0.8232493911       -9.6583606318
 C        -6.1287738480       -1.4924207374      -10.2915546087
 C        -5.7345557822       -0.7160298892      -11.6117258979
 O        -6.6334560166       -0.2122959296      -12.2995282991
 C        -4.2114734149       -0.8222911428      -12.1789080091
 C        -3.5811629052       -2.2047164724      -11.9394418943
 O        -3.8067750259       -2.8347175604      -10.9395360947
 C        -2.4410110668       -2.6495673384      -13.0358822031
 C        -1.5926947697       -3.8703697959      -12.5162057154
 C        -0.1113934612       -3.7486229310      -12.8812336298
 O         0.4269390474       -2.6417621438      -12.9049245414
 C         0.5838928723       -5.1486542885      -13.5463719793
 C         1.9389395348       -4.8930861061      -14.2378729522
 O         2.0716583797       -4.9861830571      -15.4575511998
 C         3.0190050234       -4.3188682233      -13.4025547393
 C         4.4429568862       -4.4332311711      -14.0308704048
 C         5.5687024686       -4.3951765987      -12.9614132961
 O         5.3354178297       -4.2247282713      -11.7958682565
 C         7.0199010801       -4.8369508658      -13.4353764254
 C         7.5378697801       -3.5083818856      -14.2263696755
 O         6.6912368390       -2.9318347920      -14.9201170103
 C         8.9625530651       -3.1624563505      -14.1217972543
 C         9.1274085343       -1.7591497924      -13.3782251038
 C         9.6984337409       -0.6536805427      -14.2762276987
 O         9.3601434685       -0.4361578883      -15.4444021827
 C        10.7481815493        0.3628578636      -13.7513730006
 C         9.6845748311        1.2824288754      -12.7596865447
 O         9.6409785056        0.8888773371      -11.6179425011
 C         8.8823967637        2.4525818376      -13.2335078139
 C         7.5106269085        2.5745960538      -12.5063805648
 C         6.4515176992        1.6756246115      -13.2083919816
 O         6.7524330332        0.5727710519      -13.6213982132
 C         4.9337822817        2.2951484151      -13.3608463284
 C         4.2622099088        1.4905148135      -14.6334453643
 O         3.9223686953        2.1006042886      -15.6026862854
 C         3.8523900036        0.0698445772      -14.4188858956
 C         3.0673062451       -0.5019866842      -15.5848901212
 C         3.8276169417       -0.8745977299      -16.8552968330
 O         5.0032205248       -1.2463781893      -16.7882808172
 C         3.0811072424       -0.9815721912      -18.3407899791
 C         3.9749917042       -0.1233762506      -19.2793856851
 O         4.6105765999       -0.5857227257      -20.2209047938
 C         4.0915947337        1.3476226246      -18.7850642628
 C         5.4104490602        1.9931729540      -19.1720781513
 C         6.5312755394        1.3625827534      -18.3443567829
 O         6.2669032363        1.1655114736      -17.1746170421
 C         7.7382686523        0.8264272402      -19.0764534422
 C         7.8172433251       -0.7499020608      -18.8449480155
 O         7.7357340569       -1.2673119584      -17.7644956542
 C         8.2458881061       -1.6132242665      -20.0375427149
 C         7.8978190685        1.4055759423      -20.5435885833
 C         8.9929911021        1.3859671056      -18.3037663842
 C         3.0782555782       -2.4871384924      -18.7704586408
 C         1.6313098705       -0.3140272135      -18.2302013911
 C         4.3016656641        2.1437161853      -11.9125892331
 C         5.1146593908        3.8341975740      -13.6185479164
 C        11.8147318237       -0.2929160616      -12.8070127277
 C        11.5364739768        1.1141885078      -14.8609339871
 C         7.8566382868       -5.1776817064      -12.2225722494
 C         6.9340632893       -5.9274453515      -14.4761158864
 C         0.7492376654       -6.1128862203      -12.3508920172
 C        -0.4168234046       -5.8095581998      -14.6024764381
 C        -4.2367473328       -0.2441974829      -13.5790748735
 C        -3.4335401029        0.2127861865      -11.3232835985
 C        -9.6841811419        0.8916930180       -8.9187532333
 C        -7.8641024082        2.7669096834       -8.5372711275
 C        -6.1889882173       -2.0206628969       -2.9637018365
 C        -6.9626582876       -2.5743249873       -5.3536198195
 C       -13.1446037732        0.0810232399       -0.8898143892
 C       -12.7350861157       -2.4190031798       -0.1925310319
 C       -17.3224797833       -3.5508183794       -6.4542366063
 C       -19.2955450802       -1.9245128308       -5.9276785658
 C       -20.8971519894       -5.9729217275        0.2275372993
 C       -19.0438262020       -4.7263766898        1.2914620896
 H       -18.8041280742       -8.4353036845        1.0512075215
 H       -17.8366652314       -8.7729286985       -0.3389613655
 H       -19.5248454638       -8.5669136344       -0.5506485772
 H       -21.2882942867       -4.4538428068       -2.0325735514
 H       -20.3626993863       -5.5271102391       -2.8679435240
 H       -20.0884800561       -2.4691197255       -3.1193525516
 H       -20.8020300216       -3.7817305350       -4.1385620809
 H       -15.1918903732       -2.3999958350       -4.6068354637
 H       -16.1624273040       -3.1815194104       -3.3648805181
 H       -16.3300322787       -0.7527682561       -2.3757923587
 H       -14.8756795186       -0.3105390251       -3.4586311348
 H       -10.4632690851       -2.1683953428       -1.8762680319
 H       -10.6236571668       -0.4543283758       -2.4462622192
 H        -9.9359302793       -1.0721388839       -4.6879775848
 H       -10.4588099586       -2.7888481257       -4.3236211562
 H        -6.1383795960       -0.2793986339       -5.7746576030
 H        -5.8084298250        0.8169020808       -4.4412831850
 H        -6.7353887348        2.4311156869       -6.2192000471
 H        -7.9786271174        2.1269589713       -5.0022316109
 H        -8.0932036851       -0.5642463565      -10.4775167611
 H        -7.9560244688       -1.4669408939       -9.0381822239
 H        -6.3843356118       -2.4979402863      -10.6103329915
 H        -5.3052158831       -1.5040651030       -9.5639725053
 H        -1.8561097353       -1.8446862767      -13.4507166590
 H        -3.0706874893       -2.9508292926      -13.8660231391
 H        -2.0013521107       -4.8821250152      -12.6837537589
 H        -1.6059458560       -3.8434261454      -11.3879850516
 H         3.1086480301       -4.7968308790      -12.4270746033
 H         2.8451780390       -3.3413845973      -12.9755959598
 H         4.7115923826       -3.6992228548      -14.8522821738
 H         4.5150107658       -5.5074424905      -14.3063619443
 H         9.3250584919       -3.0537873667      -15.1530573342
 H         9.5325983801       -3.9944489775      -13.7331810128
 H         9.6432894243       -1.9162574743      -12.3839194543
 H         8.1254407314       -1.4817206143      -13.0194881100
 H         8.8876757612        2.4699343721      -14.3375537520
 H         9.4640497024        3.2977710711      -12.9803671462
 H         7.1372853956        3.5798658726      -12.4543034930
 H         7.5709205242        2.3857299461      -11.4050361558
 H         3.2965501081       -0.1066540935      -13.5362955391
 H         4.7225739139       -0.6083653974      -14.1824037404
 H         2.3394766543        0.2902289391      -15.8958402903
 H         2.6783127935       -1.4967174967      -15.2226439089
 H         4.0763361501        1.3482725658      -17.7005120148
 H         3.2263958645        1.8593037087      -19.2876601721
 H         5.4158421892        3.0885443909      -18.9538377299
 H         5.5813691474        1.8898987814      -20.2754750777
 H         9.3321562133       -1.6209136629      -20.2912857986
 H         7.7622366931       -1.3002681487      -20.9276769044
 H         8.0298158124       -2.6328107833      -19.8965459964
 H         8.8567560714        1.2516546427      -20.9605465907
 H         7.7195773849        2.4180073385      -20.5202091899
 H         7.2317670334        0.8273983843      -21.3173940874
 H         9.8413649300        0.8176883630      -18.6762038470
 H         9.0656757039        1.2992770958      -17.2352668331
 H         9.2328263413        2.4291710242      -18.5819144303
 H         4.1032737375       -2.8522888940      -18.6975615136
 H         2.8572488230       -2.5137186080      -19.7796334121
 H         2.2998087536       -3.0398503234      -18.1739791126
 H         1.7383904304        0.7452002666      -18.0842195385
 H         1.0890206565       -0.7583398829      -17.4316938573
 H         1.0073336312       -0.5402397419      -19.1171991474
 H         4.6377376558        1.2088460082      -11.3710570603
 H         3.1979889237        2.1144865515      -11.8292790611
 H         4.7557159163        2.9820148988      -11.3435267324
 H         4.9137640317        4.4941330485      -12.7848913823
 H         4.3669491483        3.9937890828      -14.3907636706
 H         6.0436784634        4.2008516802      -14.0210003850
 H        12.6168386026        0.4315349898      -12.6670474276
 H        12.3230221061       -1.0917114162      -13.4292518178
 H        11.4291366106       -0.6483826828      -11.8678406510
 H        10.9767160527        1.5750139235      -15.7673889123
 H        12.2391288347        0.3785974787      -15.3001898055
 H        12.0925963851        1.9663433297      -14.5448366862
 H         7.2504479713       -5.8948405239      -11.6172072297
 H         8.1421856966       -4.2961199147      -11.5712214417
 H         8.8161885164       -5.6206167264      -12.5269930583
 H         6.4189105178       -6.8871308708      -14.2145215736
 H         7.8961118084       -6.1667219486      -14.8366283471
 H         6.3742157227       -5.5958864970      -15.3082040101
 H         1.0453690193       -5.5524307456      -11.4626776134
 H         1.4526062038       -6.8711963987      -12.5208383189
 H        -0.1772091294       -6.5305477584      -11.9994715518
 H        -0.8009899476       -6.7594653248      -14.3452481777
 H         0.1491175913       -5.9255134580      -15.5078735383
 H        -1.2528175540       -5.2449622886      -14.8368010215
 H        -3.3257284503        0.0146134585      -14.0691269546
 H        -4.8203576115        0.7310810628      -13.4728594155
 H        -4.8065274887       -0.9131239700      -14.2698149625
 H        -3.2703735450       -0.0315735605      -10.2651263821
 H        -3.9345918741        1.1607816870      -11.3928901283
 H        -2.5013529765        0.3002546222      -11.8594329457
 H       -10.0445259551       -0.0437995537       -8.5881598209
 H        -9.7002140315        1.0244905684      -10.0131845688
 H       -10.3394259794        1.6622475346       -8.5322672259
 H        -8.5622423337        3.4548057491       -8.0774460042
 H        -7.8916085894        3.0186149636       -9.6038592790
 H        -6.8783265664        2.9073271643       -8.2090640514
 H        -5.8976294833       -3.0179475214       -3.0286741133
 H        -6.5159910355       -1.9014444635       -1.9519607381
 H        -5.3215256790       -1.3845017159       -3.1384680725
 H        -6.7811616589       -3.6020824395       -5.2010498709
 H        -6.0319694732       -2.0710607376       -5.6391200022
 H        -7.8079260695       -2.4553079727       -6.1104106716
 H       -14.0635600996        0.2117199210       -0.3161666704
 H       -13.0863103003        0.8420094483       -1.6251873693
 H       -12.2511719076        0.3403985560       -0.1920200244
 H       -11.6702964210       -2.4775719112       -0.0356367363
 H       -13.1859564755       -3.3412574016       -0.4210308344
 H       -13.2492710429       -2.2008055191        0.7326437838
 H       -17.7475105157       -4.3282408216       -6.9897232988
 H       -16.3240461007       -3.8008694050       -6.0011990545
 H       -17.0054576590       -2.7642989737       -7.1537384421
 H       -19.6535514181       -1.1617888068       -5.2901918050
 H       -20.0197529239       -2.6337637335       -6.3792322497
 H       -18.7776600399       -1.5070009564       -6.7512590479
 H       -21.3287462420       -6.5516630209       -0.5198526987
 H       -21.5575600004       -5.1403242120        0.4429538920
 H       -20.7947775186       -6.4888260887        1.1508853787
 H       -19.2690386910       -5.4448425725        2.0939882244
 H       -19.6327167063       -3.8161188092        1.4840388456
 H       -17.9156520445       -4.6231557879        1.2465273198
 Na      -16.6861875907       -4.3452744613       -1.5360684820
 Na        6.9827712563       -0.5686907349      -15.6900631820
