232

 C       -18.8735716681       -7.9621413959        0.0949652425
 C       -18.4046627564       -6.5667087353       -0.3432540021
 O       -17.3297256301       -6.3815443439       -0.8191451643
 C       -19.5259345205       -5.4268943769        0.0425153335
 C       -19.5193453622       -4.4443682435       -1.1523534482
 O       -18.7618004860       -3.5350425037       -1.0806208603
 C       -20.4187212869       -4.6082131934       -2.3390044614
 C       -20.0654478066       -3.6087396551       -3.5037624704
 C       -18.6685286237       -3.7377393273       -4.0952791381
 O       -17.8309191404       -4.5586557097       -3.7971116764
 C       -18.2257442918       -2.7754240297       -5.2337102812
 C       -17.4081989239       -1.6565002855       -4.2768500583
 O       -17.8960646914       -0.6442598454       -3.9016384547
 C       -15.9434420762       -2.0376771302       -3.9698100264
 C       -15.3335077954       -1.0508776529       -2.8687521730
 C       -14.6131730516       -1.8299470309       -1.6689030722
 O       -15.1933108468       -2.6083416018       -0.9037986297
 C       -13.0946759852       -1.5341181087       -1.3937103591
 C       -12.2592714074       -1.7485965354       -2.7539239071
 O       -12.7718801393       -2.3214685024       -3.6942391102
 C       -10.7670892789       -1.4410275450       -2.6948426894
 C        -9.9553234980       -2.0181481439       -3.9345858526
 C        -8.5007093491       -2.3756722685       -3.4429404266
 O        -8.3870209946       -3.3848795619       -2.7926482856
 C        -7.1261202848       -1.7114943573       -4.1140912037
 C        -7.4166861460       -0.2213239085       -4.3340067949
 O        -8.1031389414        0.3321531754       -3.5029673411
 C        -6.5660977526        0.7380794289       -5.2584543499
 C        -7.3971281790        1.7063864109       -6.0541688080
 C        -8.3029370187        0.9345217482       -7.1005808735
 O        -9.0197031561        0.0807058674       -6.7399101401
 C        -8.2470990654        1.4222749884       -8.6561682076
 C        -7.0302681692        0.4195554456       -8.9471484613
 O        -5.9641002311        0.7458375579       -8.4677410743
 C        -7.2518917900       -0.8853157317       -9.6675554129
 C        -5.9524993995       -1.4438684389      -10.2071221758
 C        -5.7026072657       -0.7555699211      -11.5204639678
 O        -6.5463384648       -0.2303919861      -12.1847339751
 C        -4.1988760904       -0.8322593990      -12.1546198251
 C        -3.4726019178       -2.1800559099      -11.9538053548
 O        -3.6165920836       -2.8064921539      -10.9192264902
 C        -2.4763098701       -2.5732166707      -13.0200299130
 C        -1.7030439541       -3.8034812248      -12.5052863427
 C        -0.2426090100       -3.8874960895      -12.9249597779
 O         0.3901670430       -2.8527531300      -12.9992376146
 C         0.3304872863       -5.1956760409      -13.5611805790
 C         1.7356392797       -4.8006900090      -14.1287620653
 O         1.9342587915       -4.8926623530      -15.2960027907
 C         2.8613368538       -4.3870831896      -13.1502447936
 C         4.2302953119       -4.5163338893      -13.9600832176
 C         5.4522550245       -4.6229487401      -12.9391525649
 O         5.3122619602       -4.3630728375      -11.7689583280
 C         6.9333050651       -4.8726735008      -13.5504537929
 C         7.2591278065       -3.5240540192      -14.1378685349
 O         6.4408610364       -2.7373454346      -14.6096711909
 C         8.7857422948       -3.0596278753      -14.2304559398
 C         9.0854753121       -1.8058392322      -13.4094630372
 C         9.8193501091       -0.7251637821      -14.3316496888
 O         9.6422640241       -0.7248146417      -15.5413381449
 C        10.6948928714        0.4275280341      -13.6855254993
 C         9.7831154859        1.2240970124      -12.6667588344
 O         9.5129583945        0.8429809395      -11.5611499011
 C         9.0360981743        2.4872840641      -13.2019060880
 C         7.7610855857        2.5559595998      -12.4653699652
 C         6.6175229592        1.7816970810      -13.1735644891
 O         6.9093258681        0.6662377337      -13.5698347928
 C         5.2086063370        2.3635955055      -13.5610541007
 C         4.2715349683        1.6131835503      -14.6116699827
 O         3.5663574664        2.2959158715      -15.3243566868
 C         4.1054330665        0.1087781036      -14.4701372674
 C         3.0046457131       -0.3926252701      -15.5294496651
 C         3.7545957818       -0.8182963705      -16.8064176787
 O         4.9378201771       -1.0405681996      -16.8144738154
 C         2.9592608305       -0.9449442632      -18.0754029626
 C         3.8588048716       -0.1033572354      -19.0419567486
 O         4.6666122758       -0.5234431372      -19.7962852714
 C         3.7996813857        1.3698448551      -18.8511047071
 C         5.2818087921        1.9312203325      -19.0452723537
 C         6.3760606295        1.1411801700      -18.3913859022
 O         6.2996730522        1.1272751154      -17.1528769572
 C         7.7873933049        0.7376329394      -19.0123862516
 C         8.0841375486       -0.8573453217      -18.8743473303
 O         7.7907428135       -1.5006197687      -17.8210495927
 C         8.5467500901       -1.6066380126      -20.0728195238
 C         7.7878312521        1.0743726800      -20.5172671245
 C         8.8603979862        1.4372725074      -18.1319484293
 C         2.9389544094       -2.4901807244      -18.4851046701
 C         1.4284074879       -0.5227714854      -18.2362277131
 C         4.3281054083        2.2382506891      -12.2425368073
 C         5.2993471531        3.8942185738      -14.1417584704
 C        11.7744301225       -0.2104074298      -12.6215580460
 C        11.2446714676        1.3421955511      -14.8500509083
 C         7.8313829014       -5.2327341582      -12.2864336092
 C         7.1985734697       -5.9968636257      -14.5844933589
 C         0.5414261184       -6.0510083382      -12.3148375124
 C        -0.5826274434       -5.8250977751      -14.6522062459
 C        -4.2544982124       -0.4089326298      -13.5660401825
 C        -3.4033135756        0.0832661574      -11.2451536558
 C        -9.5271614305        1.0066850375       -9.4023333064
 C        -7.8420146280        2.8756726175       -8.8308962620
 C        -6.0015717153       -1.8983266125       -3.0648000509
 C        -6.8170145179       -2.5057625951       -5.3934639539
 C       -13.0292593269       -0.0554737086       -0.9012306460
 C       -12.4008222794       -2.4395655217       -0.3847160594
 C       -17.2659805327       -3.5491315711       -6.1586875215
 C       -19.3963803776       -2.1049234256       -5.9880295014
 C       -20.9026046455       -5.9391367391        0.2156020460
 C       -18.8476817537       -4.8857627932        1.3061017593
 H       -19.0874502061       -8.0306143477        1.1556340559
 H       -18.1076457912       -8.7141188341        0.0588324827
 H       -19.6897885624       -8.4299451664       -0.4180445816
 H       -21.5207353060       -4.6397400833       -2.0352122796
 H       -20.3109860159       -5.6748858126       -2.5916295914
 H       -20.2831100115       -2.6015984929       -3.0906043578
 H       -20.8333769229       -3.9630877945       -4.1833281253
 H       -15.3968005995       -2.0777682792       -4.8799750964
 H       -16.0077984436       -3.0856823127       -3.5666708613
 H       -16.0764835338       -0.3849280583       -2.4809003747
 H       -14.5474124291       -0.4953594982       -3.1454847817
 H       -10.4139919385       -1.9600809948       -1.7833415337
 H       -10.5318629497       -0.3591929025       -2.6253483735
 H        -9.9967121213       -1.2763243788       -4.6790614187
 H       -10.3500632971       -2.9667890052       -4.3590830730
 H        -5.8700981472        0.2061102015       -5.8848476914
 H        -6.0003904392        1.4191079643       -4.5903052076
 H        -6.8396470087        2.4361631194       -6.5476832910
 H        -7.9149737803        2.3205749991       -5.3794411090
 H        -7.9762081997       -0.7387753971      -10.4563323180
 H        -7.7925010565       -1.6257069164       -8.9946817212
 H        -6.2019634665       -2.5102681981      -10.5424464828
 H        -5.1057471424       -1.3506654737       -9.4760823980
 H        -1.8612638772       -1.6597983048      -12.9607678302
 H        -2.9016411019       -2.5596090408      -14.0404001163
 H        -2.2807275507       -4.6584185093      -12.8788999733
 H        -1.9039982904       -3.8766942714      -11.4377112942
 H         2.9237334320       -5.0965241829      -12.3102499762
 H         2.6544866197       -3.5447422839      -12.4678936717
 H         4.4370535792       -3.8201571790      -14.7600734806
 H         4.1637846552       -5.5402040563      -14.3395448347
 H         9.0202534613       -2.8505195636      -15.2610079371
 H         9.5453010254       -3.8024996337      -13.9986514698
 H         9.5490804412       -2.0519806626      -12.4969088530
 H         8.1197419342       -1.4055131346      -13.0416179471
 H         8.8149635575        2.3746654522      -14.2811510713
 H         9.7426890287        3.3956602253      -13.2187018201
 H         7.3360584988        3.5486287841      -12.2236060511
 H         7.8518873676        2.1134231128      -11.4923137787
 H         3.7171092431       -0.0991291859      -13.4414444543
 H         4.9674159067       -0.5485086255      -14.4766446917
 H         2.3534529786        0.4256659460      -15.6385111384
 H         2.6641574536       -1.3226375405      -15.1690131894
 H         3.3297645758        1.6407346935      -17.8901326731
 H         3.3185889892        1.6550389963      -19.7586838374
 H         5.4035944964        2.9341048028      -18.6507804283
 H         5.4349373434        1.8948141159      -20.1008881963
 H         9.5362743361       -2.0186785937      -19.9017302909
 H         8.6762378837       -1.1250915299      -21.0885829084
 H         7.9683467008       -2.5534285001      -20.2084968698
 H         8.7037640922        0.7195375442      -21.0417495501
 H         7.8101585060        2.1949393207      -20.6877941340
 H         6.9943769883        0.6324417103      -20.9715210414
 H         9.9126970998        1.2715480011      -18.3475827195
 H         8.7797465170        1.0338608262      -17.1157413084
 H         8.6379364350        2.4710531976      -18.0032403287
 H         3.9916179022       -2.8192330155      -18.3879932833
 H         2.6835659617       -2.6345051881      -19.5874567579
 H         2.2414718162       -2.9575875770      -17.8421453501
 H         1.3742745281        0.4624765430      -17.7746793391
 H         0.7332126229       -1.1919854234      -17.7104623875
 H         1.1173609218       -0.5645482081      -19.2268059932
 H         3.7448786043        1.3032935373      -12.1653153519
 H         3.5025904112        2.9362933073      -12.4087146085
 H         4.8572921538        2.5483534729      -11.3265529944
 H         5.3386060369        4.5573785486      -13.2905640474
 H         4.5213014247        4.2309091518      -14.8292578842
 H         6.3079663036        4.0759721679      -14.4846205585
 H        12.1877950728        0.6897656297      -12.0966827893
 H        12.4340771600       -0.9321424846      -13.0528219202
 H        11.1578377421       -0.7416847967      -11.8999341220
 H        10.4701113583        1.7692147236      -15.4181059685
 H        11.9485345738        0.8760463118      -15.5676715425
 H        11.6827801918        2.3021641985      -14.4427233872
 H         7.4831267867       -6.1515541154      -11.8550715414
 H         7.7777107473       -4.5472348011      -11.4659382244
 H         8.8712745558       -5.1981576651      -12.6321092232
 H         6.9056448500       -6.8907520892      -14.0726503068
 H         8.3146722536       -6.1701641947      -14.6991517277
 H         6.6658752999       -5.9908343526      -15.5790213926
 H         1.0309461750       -5.4785437190      -11.5192876709
 H         1.1391924551       -6.9852100886      -12.5812459192
 H        -0.3817159507       -6.4326581533      -11.8351117023
 H        -1.3289061776       -6.4213489686      -14.1575237438
 H        -0.0313458555       -6.4403768467      -15.3476886331
 H        -1.2030197850       -5.0532100295      -15.2040871716
 H        -3.1973723712       -0.2464990992      -13.9942981202
 H        -4.7626768590        0.4998969193      -13.6549097373
 H        -4.7283007527       -1.1320650913      -14.2125373638
 H        -3.5070976336       -0.3481703230      -10.2560930146
 H        -3.9450074769        1.0466007388      -11.1722276385
 H        -2.3666279824        0.3293977281      -11.5526477779
 H        -9.7908026463        0.0318022990       -8.9636021975
 H        -9.2306644972        0.9110472452      -10.4030482384
 H       -10.3339431775        1.7486275689       -9.3289571032
 H        -8.5383677096        3.5570434359       -8.3323381832
 H        -8.0603137143        3.1528616505       -9.8628094971
 H        -6.7399610404        3.0123737731       -8.5795221102
 H        -6.2125800714       -2.7354610629       -2.2840808236
 H        -5.9733905798       -1.0282955965       -2.4149126928
 H        -5.0312127141       -2.0324000810       -3.5251181696
 H        -6.5795085119       -3.5397364116       -5.0405220468
 H        -6.0726175398       -1.9986176392       -5.9734822220
 H        -7.6977632790       -2.6132992586       -5.9447263109
 H       -13.5547543302        0.1311089991        0.0235475238
 H       -13.4923380778        0.6635149348       -1.6068808387
 H       -12.0378641125        0.2521313281       -0.8630052419
 H       -11.7746798678       -1.7282047743        0.1352862411
 H       -11.9416306164       -3.3445975825       -0.7229972467
 H       -13.2047399857       -2.7927570494        0.2555413109
 H       -17.8523071467       -4.4570908978       -6.4729711803
 H       -16.3120471775       -3.8357036685       -5.8017604422
 H       -17.1105618800       -3.0243675994       -7.0766154471
 H       -19.8413358659       -1.3802815638       -5.1967168466
 H       -20.0138685340       -2.7957026445       -6.4756887280
 H       -18.8634442174       -1.4998575071       -6.7482106195
 H       -21.0619674226       -6.4638405692       -0.7524797409
 H       -21.7227222033       -5.2524260363        0.3540924377
 H       -20.9033383994       -6.7240256921        1.0648780820
 H       -18.8277908446       -5.7940582857        1.9387524751
 H       -19.4878386775       -4.1218785320        1.7795973352
 H       -17.8331351381       -4.6350306181        1.1719864120
 Na      -16.7271437545       -4.1006739046       -1.3131707398
 Na        6.9118057039       -0.6939977162      -15.5928331773
