232

 C       -18.6987248697       -8.0123457008       -0.0711307947
 C       -18.4628005158       -6.5670170039       -0.3855222503
 O       -17.4803489123       -6.2464755514       -0.9364250824
 C       -19.5214919100       -5.4730042358        0.1735362888
 C       -19.6477541703       -4.4559213514       -1.0382929614
 O       -19.0794125336       -3.4217278030       -0.9658710533
 C       -20.4946888176       -4.8268760466       -2.3148059374
 C       -20.1160630773       -3.8690274213       -3.5115513113
 C       -18.6215249923       -3.8199031282       -3.8570839635
 O       -17.8468295513       -4.5149448384       -3.2432648971
 C       -18.0934423340       -2.7965854367       -4.9293906051
 C       -17.3986357603       -1.7552226743       -3.9943131899
 O       -18.0240448379       -0.8409402902       -3.5651432556
 C       -15.8232859753       -1.8958053261       -3.8450292839
 C       -15.2405539549       -1.0180468493       -2.7826756833
 C       -14.4458389028       -1.7545244932       -1.7126462122
 O       -14.9939572160       -2.6755443939       -1.1124283467
 C       -12.8535731025       -1.4870852894       -1.5468289868
 C       -11.9985906496       -1.7978654510       -2.9614184661
 O       -12.4865423440       -2.3201279757       -3.9250671572
 C       -10.5010811554       -1.4401403956       -2.9038889069
 C        -9.7407221445       -1.9916316051       -4.1150842113
 C        -8.2967579585       -2.2963132710       -3.7083964172
 O        -8.0710428351       -3.2132397265       -2.9585656313
 C        -7.0857391650       -1.5425955552       -4.2666172237
 C        -7.5004478315       -0.0411993972       -4.4373942680
 O        -8.3442494675        0.5182331983       -3.7937401070
 C        -6.7147883346        0.6870494005       -5.5633822709
 C        -7.6504053253        1.6882098810       -6.2230366757
 C        -8.4724581675        1.0868954589       -7.3491747713
 O        -9.0445259048        0.0573193489       -7.1433413833
 C        -8.1668219461        1.4567593744       -8.8866332945
 C        -6.8535517889        0.5245248246       -9.1809629026
 O        -5.7127681901        0.8755156750       -8.8903681410
 C        -7.0845499488       -0.9340761304       -9.4634137949
 C        -5.8825339640       -1.5847391506      -10.1040363695
 C        -5.6077566709       -0.7901087825      -11.4629567227
 O        -6.4997459569       -0.3811868938      -12.1256318961
 C        -4.1163546392       -0.6372794651      -12.0022990983
 C        -3.4726790464       -2.0794603976      -11.8164184965
 O        -3.7307213024       -2.7545027740      -10.8291859525
 C        -2.4905985241       -2.5930735720      -12.8639276461
 C        -1.7899887280       -3.9611148663      -12.5918025785
 C        -0.3842083440       -4.0187441383      -13.1353192475
 O         0.3532145178       -3.0800143342      -13.2244939882
 C         0.1340683734       -5.4134921443      -13.5060818478
 C         1.6740301622       -5.0034442912      -14.1252574466
 O         1.8199589997       -4.7010102974      -15.2708686048
 C         2.8631742227       -4.9863140747      -13.1747591545
 C         4.2918938956       -5.0133362861      -13.8409266701
 C         5.3722455922       -4.8109445949      -12.8539108665
 O         5.1995761220       -4.8147483634      -11.6629269778
 C         6.8626443270       -4.6771502129      -13.4348114224
 C         7.2088610872       -3.3043197848      -13.9922254398
 O         6.3381576257       -2.4602243568      -14.0941868496
 C         8.6441926833       -3.0955359858      -14.3801033016
 C         9.2710658097       -1.8717754661      -13.5696969641
 C         9.8763430410       -0.7283791893      -14.3669220782
 O         9.6700080732       -0.7098024593      -15.5554655935
 C        10.6738018734        0.4003969240      -13.5589672559
 C         9.6453430979        1.0963114772      -12.4643199552
 O         9.2978842108        0.5700220952      -11.4519352509
 C         9.2085296049        2.4709477314      -12.7906939461
 C         7.6786187697        2.6269211837      -12.4907840761
 C         6.6647844626        1.9648852152      -13.4745547008
 O         6.8050990280        0.8815199010      -14.0206644156
 C         5.2822760219        2.6260983440      -13.7189514114
 C         4.1931836689        1.7362792068      -14.5307567548
 O         3.4284038000        2.3333965414      -15.3304334591
 C         3.9362494709        0.2884456690      -14.2626055408
 C         2.9025853807       -0.4262851488      -15.2443746685
 C         3.6851209683       -1.0700261142      -16.4858680474
 O         4.8380236465       -1.3732752015      -16.4550739856
 C         2.8403104551       -1.0774998875      -17.9102029203
 C         3.8087348502       -0.2660081612      -18.8599800789
 O         4.5848910413       -0.8113206497      -19.5878645530
 C         3.8574192413        1.3437535774      -18.6667115031
 C         5.2227419990        1.8522330050      -19.1627239219
 C         6.3430649178        1.1211182997      -18.2644125031
 O         6.1410862970        0.9752162142      -17.0502397741
 C         7.8204114285        0.6711863577      -18.9683009023
 C         8.0427298048       -0.9011458233      -18.8367815172
 O         7.7317039321       -1.5215148138      -17.8035143278
 C         8.7528974154       -1.7078002106      -19.9066414565
 C         7.7501656138        1.1142485578      -20.4311819550
 C         9.0441907869        1.3175095727      -18.1732306295
 C         2.6467365485       -2.5841335336      -18.3868220948
 C         1.3945792051       -0.5006919114      -17.8745008257
 C         4.6760185076        3.1118607741      -12.2869345675
 C         5.4071872666        3.8593715510      -14.6875002538
 C        11.9247919065       -0.2122867450      -12.8295155102
 C        11.2398550206        1.4551843969      -14.5984348752
 C         7.7825209365       -5.1578195079      -12.2923288174
 C         6.9109069548       -5.6585333711      -14.6585858771
 C         0.1308509211       -6.2838549112      -12.2180777072
 C        -0.6458609821       -5.9242106790      -14.7247778160
 C        -4.2133431098       -0.2675667962      -13.5005655781
 C        -3.4073648239        0.4547983317      -11.1906401227
 C        -9.4458915009        1.1350201401       -9.7240263116
 C        -7.7538334248        2.8841986307       -9.2126915403
 C        -5.8765873488       -1.5723411464       -3.3260678392
 C        -6.9395168094       -2.1313975175       -5.6536735237
 C       -12.6277677374        0.0312118473       -0.9707693010
 C       -12.3981553971       -2.5170261468       -0.4407676652
 C       -17.0892378233       -3.4260566769       -5.9543329682
 C       -19.2884811741       -2.0482700005       -5.6981742583
 C       -20.9769867189       -5.9966770629        0.4019567199
 C       -19.0394656479       -4.7387752879        1.3778146520
 H       -18.7842801884       -8.2528123272        0.9695258295
 H       -17.8632681262       -8.6821915480       -0.3292476960
 H       -19.6192669927       -8.4430076341       -0.5388677147
 H       -21.5336671970       -4.8827355915       -2.0333775161
 H       -20.2489297427       -5.8732422443       -2.5191236615
 H       -20.4469363919       -2.9059757712       -3.1216120359
 H       -20.7082888411       -4.1553575063       -4.3534704966
 H       -15.4354157703       -1.4140214857       -4.7873751577
 H       -15.4965883184       -2.9066243943       -3.8631170273
 H       -16.0761171757       -0.5240947118       -2.1247572889
 H       -14.5821278448       -0.2003149799       -3.0687244983
 H       -10.0169214360       -1.9026657103       -2.0881991317
 H       -10.3884329079       -0.3181157129       -2.7381139259
 H        -9.8197380662       -1.3837218492       -5.0224388452
 H       -10.2612882317       -2.9308000389       -4.4003274110
 H        -6.1633886781        0.2041048638       -6.3651880037
 H        -5.9917661756        1.2807631581       -4.9970947341
 H        -7.1845983851        2.6454762628       -6.5575509624
 H        -8.4041837856        2.1522472954       -5.4778433576
 H        -7.9497204274       -1.0442573582      -10.1162258019
 H        -7.4266540661       -1.4484358066       -8.5388012297
 H        -6.2197249859       -2.5425428242      -10.3797908367
 H        -5.0795860653       -1.4171046573       -9.3883347404
 H        -1.7115755114       -1.8539168963      -12.7964446114
 H        -2.9899933965       -2.4384197007      -13.8048710188
 H        -2.5250783941       -4.7671767932      -12.8912211820
 H        -1.6117157666       -4.0141520539      -11.4777680188
 H         2.7174658072       -5.6797330244      -12.3827434428
 H         2.6309084048       -4.1098881423      -12.5765882223
 H         4.2794716302       -4.3804549404      -14.7737195873
 H         4.5063969996       -6.0621722403      -14.2630136147
 H         8.8471563485       -2.8620334159      -15.4006602834
 H         9.2592124628       -4.0133515798      -14.2511713436
 H        10.0767167797       -2.1812273837      -12.8216439391
 H         8.4610462336       -1.4989425616      -12.8914721879
 H         9.4785631166        2.7254548838      -13.7727016486
 H         9.7487035876        3.1988562132      -12.0947304320
 H         7.3792575930        3.7352470839      -12.4765660587
 H         7.4515409729        2.2605472688      -11.5050050387
 H         3.4624388438        0.2222610605      -13.2820548335
 H         4.7217823547       -0.3681040534      -14.2003360297
 H         2.2793827457        0.4498201570      -15.5371877605
 H         2.4930192498       -1.2779998865      -14.6703064764
 H         3.6747616148        1.6389423185      -17.5920925178
 H         3.1845804389        1.7686733392      -19.3865629695
 H         5.2104322287        2.9349626593      -19.0377049745
 H         5.3405007299        1.4680861182      -20.1874722660
 H         9.2994710366       -2.5277754124      -19.6214505305
 H         9.4342228606       -1.0768713727      -20.4735985226
 H         8.0444983776       -2.1045390232      -20.6641667164
 H         8.7080116999        0.9817221670      -20.9419235938
 H         7.5438879511        2.2329152117      -20.3687234505
 H         6.9825861306        0.7448485312      -20.9543144304
 H        10.0097664449        0.8643519506      -18.4142973848
 H         8.9326303218        1.0280691860      -17.1059164687
 H         9.0653948357        2.3953306094      -18.1369754095
 H         3.6031025979       -2.9205260977      -18.6722676550
 H         2.0698483660       -2.4906110502      -19.3386976435
 H         2.0857728020       -3.1740444743      -17.6993970479
 H         1.2871444893        0.5475592548      -17.6385917902
 H         0.8983700385       -1.0533432715      -17.0400826263
 H         0.8935716571       -0.8499941693      -18.7826421323
 H         4.6117814317        2.2408598123      -11.6504165879
 H         3.6970377933        3.6287294814      -12.2848984619
 H         5.3365783535        3.9440091057      -11.9804453555
 H         5.8952921879        4.7267960757      -14.1740451847
 H         4.4510129347        4.1915262473      -14.9781135228
 H         6.0964375141        3.6680955824      -15.5153168894
 H        12.4345748518        0.6370248951      -12.4156415998
 H        12.3655530170       -0.8909605576      -13.4896675331
 H        11.5763052436       -0.8643946502      -12.0054224949
 H        10.5248460058        1.7936860128      -15.3119038223
 H        12.0831893965        0.9867689772      -15.1928530042
 H        11.6626825846        2.4177490125      -14.0972326963
 H         7.4600711922       -6.0974599109      -11.7969985011
 H         7.6894241675       -4.5524128523      -11.4009105211
 H         8.8128490793       -5.1360293792      -12.6529100601
 H         6.6140092866       -6.6063144094      -14.3673735538
 H         7.9185811752       -5.7963752367      -15.0964982215
 H         6.3101119101       -5.2550242938      -15.4630421385
 H         0.6784423406       -5.7808595083      -11.4487731165
 H         0.5168099914       -7.2754469214      -12.3857853537
 H        -0.8588686309       -6.4886101254      -11.8873153631
 H        -1.6520440958       -5.5222686016      -14.7900466421
 H        -0.7233719374       -6.9667119331      -14.6722115045
 H        -0.1217358114       -5.6728030768      -15.6447542721
 H        -3.2265715416       -0.0108177628      -13.9678078251
 H        -4.9229111080        0.5639360929      -13.5919570910
 H        -4.6746995650       -1.0850496404      -14.0872544162
 H        -3.5385928945        0.2432036547      -10.1687296204
 H        -3.6608837506        1.5116792360      -11.4237373146
 H        -2.3555979230        0.3806289030      -11.4398080349
 H        -9.8401001897        0.2176235184       -9.2409463606
 H        -9.2327350428        1.0657916768      -10.7880541287
 H       -10.1368725398        1.9093305039       -9.4870016617
 H        -8.4278174447        3.5937777343       -8.8038576543
 H        -7.7846193491        3.0110186413      -10.2691409223
 H        -6.7607978077        3.0248146652       -8.7829593545
 H        -5.9626988248       -2.5090642900       -2.7866201857
 H        -5.9208256267       -0.8216645248       -2.5571706116
 H        -4.9348227469       -1.5832202619       -3.7848885864
 H        -7.1326791921       -3.2356128292       -5.6087104370
 H        -5.9587118149       -1.7880888705       -6.0383799230
 H        -7.6216592794       -1.6624127549       -6.3154120404
 H       -12.5581082697        0.1487367303        0.1281697167
 H       -13.5081872051        0.7303404216       -1.1830891721
 H       -11.7947512297        0.4554277176       -1.4203043523
 H       -11.4264298296       -2.2435795287       -0.0732368440
 H       -12.4126551792       -3.5416600626       -0.9125819124
 H       -13.1408587258       -2.4937743954        0.3438343495
 H       -17.6785161682       -3.8076590841       -6.8639679007
 H       -16.5352040246       -4.2575031619       -5.6540832992
 H       -16.4062684366       -2.6935360677       -6.3635628092
 H       -19.7100069212       -1.5329348217       -4.8042107272
 H       -19.9856640832       -2.7560550300       -6.0788300655
 H       -18.9335733313       -1.3683718503       -6.4455925938
 H       -21.3313442465       -6.5171101621       -0.4833403601
 H       -21.5397821741       -5.1389342645        0.4089561495
 H       -21.2010819195       -6.6167292386        1.2434537299
 H       -18.7517815672       -5.3764324325        2.2413481908
 H       -19.8003176439       -3.9726362900        1.5932226216
 H       -18.1159643374       -4.1994367983        1.1152255141
 Na      -16.7381596177       -4.1953119201       -1.4278496525
 Na        7.0440939335       -0.8361961091      -15.7713676608
