232

 C       -18.7534388859       -7.9812072238       -0.0883549156
 C       -18.5054302298       -6.5419730096       -0.3087770002
 O       -17.4640289088       -6.1202623808       -0.8283788388
 C       -19.5838221175       -5.4670730599        0.1050382196
 C       -19.6857073695       -4.4724250053       -1.1034262935
 O       -19.1104198067       -3.3961984632       -0.9864484379
 C       -20.4613796624       -4.8501199375       -2.2909612983
 C       -20.1157019674       -3.9700693175       -3.4283146582
 C       -18.6486728088       -3.8167092178       -3.8507284892
 O       -17.7594561868       -4.5014740988       -3.3533553589
 C       -18.1286856747       -2.7820502508       -4.8184504383
 C       -17.2652659664       -1.7154681716       -3.9756714296
 O       -17.9178165754       -0.9157941040       -3.3318497613
 C       -15.7861289425       -1.8672252461       -3.7872204888
 C       -15.2059066684       -0.8946464412       -2.7364465567
 C       -14.3243841618       -1.7451400280       -1.8430237021
 O       -14.8122429661       -2.7778762312       -1.3464584107
 C       -12.8456479990       -1.5111657773       -1.5977177129
 C       -12.0217202046       -1.7241769736       -2.9070791815
 O       -12.5537892479       -2.2834318532       -3.8864376512
 C       -10.5235487937       -1.5071456899       -2.8960286548
 C        -9.7511790425       -2.0897481671       -4.1444550571
 C        -8.3026355503       -2.3172883276       -3.7009033425
 O        -8.0788158705       -3.1799445828       -2.8870387377
 C        -7.1243360397       -1.4688708630       -4.3925556256
 C        -7.4753531662        0.0723004825       -4.5609673583
 O        -8.3705301841        0.5186597226       -3.8361792465
 C        -6.7496090896        0.9585621428       -5.5718286929
 C        -7.7454385452        1.8675704901       -6.2850550233
 C        -8.4031645876        1.0121370955       -7.4724097244
 O        -9.1668619359        0.1381975318       -7.2181156862
 C        -8.0789548724        1.4468447454       -8.9230358959
 C        -6.8466857313        0.5374064628       -9.1984535752
 O        -5.7553765284        1.0264166496       -9.1343532482
 C        -7.1295967489       -0.9084612321       -9.5232770462
 C        -5.9286558369       -1.5489344770      -10.1277283777
 C        -5.6385734676       -0.8897113659      -11.4231548384
 O        -6.5514793129       -0.4084947018      -12.0973948167
 C        -4.1378000869       -0.6981509318      -11.9903846114
 C        -3.3888198387       -2.0419909680      -11.8055344739
 O        -3.6284388322       -2.6955952740      -10.8458162136
 C        -2.4191625458       -2.4606001288      -12.9186539019
 C        -1.8264994600       -3.8523200705      -12.4565988197
 C        -0.4489563118       -4.0743299816      -13.2060813698
 O         0.2710215852       -3.0680074621      -13.2680823141
 C         0.2161336297       -5.4874190077      -13.6964797053
 C         1.6127996690       -5.1571503283      -14.0975070623
 O         1.8286113360       -4.7327914094      -15.2149249415
 C         2.7281175807       -5.2144303766      -12.9981199965
 C         4.1332160322       -5.1229568989      -13.8205230108
 C         5.3433758127       -4.8424484460      -12.8219155495
 O         5.1930408401       -4.8981794021      -11.6095425637
 C         6.7884370828       -4.6923943795      -13.4267015088
 C         7.1604736249       -3.2807038890      -13.8860085765
 O         6.3377439240       -2.3761289045      -14.0319610221
 C         8.6511457967       -3.0296261738      -14.3106406793
 C         9.3561771968       -1.9319309828      -13.5002874728
 C         9.8802341061       -0.7052617283      -14.3205135659
 O         9.5954706433       -0.4555953078      -15.5054512270
 C        10.6872702474        0.3404099435      -13.5846126213
 C         9.6686800785        1.0365863589      -12.5918188081
 O         9.4134534996        0.2889190703      -11.6886267967
 C         9.1664244622        2.4957647677      -12.7444701936
 C         7.5914518468        2.5305867078      -12.4480835270
 C         6.6338618258        2.0373789851      -13.5623098441
 O         6.9162191702        1.0549182486      -14.2035825810
 C         5.2201785644        2.7315857073      -13.8107300594
 C         4.0868490833        1.7807427830      -14.5127759069
 O         3.4226031906        2.2412560650      -15.3699929165
 C         3.9441961944        0.3175717864      -14.0309776880
 C         3.0016827434       -0.3874915331      -15.1914362691
 C         3.6980577563       -1.0510293703      -16.3639540485
 O         4.7784232504       -1.5782586324      -16.2320363969
 C         2.8567099482       -1.1737712785      -17.8218045167
 C         3.7438912594       -0.3045451822      -18.7910628326
 O         4.4792745473       -0.8518464274      -19.5701626060
 C         3.8393945773        1.2008259138      -18.5238514931
 C         5.2670412576        1.7220769562      -19.1368062788
 C         6.4582214887        1.0733943290      -18.3517770257
 O         6.2442761181        0.8617108824      -17.1730022274
 C         7.7797046663        0.6952786886      -18.9077935453
 C         7.9981892357       -0.8590095945      -18.8094705805
 O         7.6560116591       -1.5877118369      -17.8608936368
 C         8.6862789757       -1.5123347839      -20.0106874000
 C         7.9121834282        1.0359757148      -20.4015421803
 C         8.9672425972        1.3269695357      -18.1398280557
 C         2.5868034493       -2.6170642042      -18.2816631465
 C         1.5105030218       -0.4058247661      -17.7634000006
 C         4.7505066565        3.2852878882      -12.4650958393
 C         5.4276499277        3.9501680789      -14.8353221281
 C        11.8199745759       -0.2939322278      -12.7018068161
 C        11.1566866964        1.3979383611      -14.5453668444
 C         7.7968868993       -5.2101363696      -12.3221256012
 C         7.0883762348       -5.5815102467      -14.6886081070
 C         0.2192714470       -6.3266572449      -12.3464165901
 C        -0.7055058965       -6.0647059965      -14.8162676914
 C        -4.2650423873       -0.1908160625      -13.4540131661
 C        -3.3919113152        0.3851912919      -11.1220452260
 C        -9.3727781974        1.0136368346       -9.7932149402
 C        -7.6502029602        2.9456472731       -9.1042411365
 C        -5.8868111836       -1.4379555141       -3.4967905120
 C        -6.8983575755       -2.1509927056       -5.8247119211
 C       -12.6367059049       -0.0441448832       -0.9938814473
 C       -12.2752371696       -2.4851392633       -0.5681126888
 C       -17.1687922817       -3.4758412628       -5.8181885941
 C       -19.2309734126       -2.0264648820       -5.6693261137
 C       -21.0027459215       -6.1279498121        0.4731097358
 C       -19.0169715675       -4.8011167469        1.3901444043
 H       -18.7738569573       -8.3146757491        0.9915231488
 H       -17.9711170524       -8.6563615439       -0.4370562975
 H       -19.7010805406       -8.3145992292       -0.4996370967
 H       -21.5193288604       -4.8513055814       -1.8439812385
 H       -20.3065438108       -5.9169907038       -2.4977442006
 H       -20.4841897427       -2.9725930420       -3.1237736321
 H       -20.7385181764       -4.3079628756       -4.2619721277
 H       -15.1313910621       -1.8241220138       -4.6050600394
 H       -15.7792259308       -2.9368896081       -3.4493949861
 H       -15.9293286211       -0.4051079608       -2.0625727264
 H       -14.5614400031       -0.1698090334       -3.1030876056
 H       -10.0645230586       -1.9453438655       -2.0001150363
 H       -10.2648181042       -0.4323471840       -2.8154288594
 H        -9.7822546002       -1.3952158501       -4.9378541203
 H       -10.2713621487       -2.9692548860       -4.5730121983
 H        -6.2937166141        0.4516666064       -6.4074019641
 H        -5.9360134527        1.5300413606       -5.0923838822
 H        -7.2975715891        2.7750369366       -6.6603884701
 H        -8.5585525367        2.3101732894       -5.7044115932
 H        -8.0373886236       -0.9909251482      -10.1219506669
 H        -7.4248096293       -1.4479135814       -8.5533009597
 H        -6.1601386612       -2.6305332180      -10.3022249630
 H        -5.1725846725       -1.1842984826       -9.4546886948
 H        -1.6554828311       -1.7428372619      -13.0020809543
 H        -3.0235229450       -2.4493309950      -13.8114776020
 H        -2.6274555205       -4.5002892655      -12.8193751591
 H        -1.7406111367       -3.8819963338      -11.3303204360
 H         2.5690925103       -6.0106712369      -12.2702990784
 H         2.4630943519       -4.3545942677      -12.3624004571
 H         3.9244272750       -4.4533095205      -14.6242704829
 H         4.3650167722       -6.0184291671      -14.4151447462
 H         8.7343600184       -2.7501876922      -15.3358104130
 H         9.2976224982       -3.8730559886      -14.2595440380
 H        10.1441044267       -2.3409497143      -12.9216551294
 H         8.6207608346       -1.5331668333      -12.7084925059
 H         9.4369346468        2.8523537438      -13.7814049316
 H         9.5745234959        3.2368501382      -11.9818183011
 H         7.3135368424        3.5506485561      -12.1654626459
 H         7.4055891162        1.9060266044      -11.5912981759
 H         3.3482481428        0.2789755833      -13.1581937476
 H         4.7768022105       -0.3683597562      -13.8318543114
 H         2.3452752621        0.4058361963      -15.4561233531
 H         2.6249442616       -1.2960008906      -14.7475822050
 H         3.8680702287        1.2561901320      -17.3935844285
 H         2.9984063867        1.7527996491      -18.9815681740
 H         5.3136683006        2.7937953669      -19.0182587175
 H         5.3428564249        1.3753117867      -20.1421526881
 H         8.9725802165       -2.5722102110      -19.8383762360
 H         9.6364735432       -1.0435845317      -20.3797979282
 H         8.0420267695       -1.5882284987      -20.8826945563
 H         8.7887834774        0.5676878190      -20.7907704007
 H         7.9630026565        2.0690458487      -20.6211464947
 H         6.9506481746        0.7436613963      -20.9361711111
 H         9.8266142275        0.6778878591      -18.2789910148
 H         8.8792906499        1.4308277143      -17.0643615357
 H         9.1664276648        2.3175370808      -18.4888948114
 H         3.4848477771       -3.2407579989      -18.5219211321
 H         2.1005491884       -2.3804111000      -19.2352073389
 H         1.8391020679       -3.0527486281      -17.6816433970
 H         1.6187418383        0.6746497561      -17.6304786400
 H         0.8734834840       -0.7149939711      -16.9264620107
 H         1.0342595558       -0.5989995947      -18.6776382148
 H         4.8716292843        2.5073742649      -11.6341635864
 H         3.6805642476        3.3997750017      -12.6321993215
 H         4.9923440441        4.3407789086      -12.2985362282
 H         6.0801931111        4.6338994817      -14.3782945163
 H         4.5576927072        4.5252717119      -15.1802355279
 H         6.0242708969        3.5737564765      -15.6463052710
 H        12.4295177139        0.5426922443      -12.3720193618
 H        12.2027016133       -1.1040364224      -13.2316499632
 H        11.3462728560       -0.7135577066      -11.8692283473
 H        10.3122791308        1.8356246283      -15.1533300853
 H        11.8904491442        0.9917099428      -15.2808615994
 H        11.6878169018        2.2428028847      -14.0233381647
 H         7.5491107668       -6.1267072035      -11.8187099455
 H         7.8297535406       -4.5705306896      -11.4543946506
 H         8.8008787198       -5.2201402026      -12.8202459485
 H         6.7166789351       -6.5241632607      -14.3883706320
 H         8.1703433146       -5.7025177130      -14.8366870441
 H         6.6912297985       -5.2344347790      -15.6271668169
 H         0.7247805379       -5.7523844692      -11.6281123978
 H         0.8025899467       -7.2509974504      -12.5152536591
 H        -0.7209644065       -6.6938826057      -11.9864108661
 H        -1.6393339722       -5.6570531184      -14.7134073928
 H        -0.8319770148       -7.0996903398      -14.6543698536
 H        -0.3023668768       -5.9393383746      -15.8049252130
 H        -3.1714655850       -0.0741355658      -13.8092857559
 H        -4.8464877445        0.7109685528      -13.5665150692
 H        -4.7334286949       -0.9406107091      -14.1205666717
 H        -3.4760288441        0.0419243190      -10.0796658212
 H        -3.7187115627        1.3822825306      -11.2497182280
 H        -2.3216020023        0.3702925852      -11.3801662753
 H        -9.7617057088        0.2403521620       -9.1630181143
 H        -9.0971032861        0.6817028750      -10.7241495206
 H       -10.1163966178        1.8127618137       -9.7942343215
 H        -8.4574246349        3.5757606296       -8.7514986487
 H        -7.4302791895        3.1256739458      -10.1454189931
 H        -6.7907680146        3.1187626867       -8.4570126512
 H        -5.5602328697       -2.4819180832       -3.2072344911
 H        -6.0949368177       -0.9357361857       -2.6051464293
 H        -5.0414777629       -0.9951095327       -3.9495099652
 H        -6.9289781266       -3.2415454363       -5.5507686061
 H        -5.9273320983       -1.8565688384       -6.1577751505
 H        -7.5804650312       -1.8795425085       -6.5979962681
 H       -12.7065673536        0.1289039997        0.0568676233
 H       -13.3281398323        0.6772644012       -1.4075080787
 H       -11.6317061590        0.2484471064       -1.3373497422
 H       -11.2030452412       -2.4941188703       -0.6591976980
 H       -12.6438033338       -3.4090822767       -0.7976611252
 H       -12.5388873445       -2.1279864431        0.4298882024
 H       -17.6488525699       -4.0989594219       -6.5400072617
 H       -16.5324474074       -4.2134381685       -5.3001639123
 H       -16.5421722716       -2.8105534683       -6.3540958548
 H       -19.5927577989       -1.2208129457       -4.9294240237
 H       -20.0178968987       -2.6454967126       -6.0045554622
 H       -18.6347319893       -1.5413662867       -6.4515435217
 H       -21.4012433966       -6.7181040256       -0.2971162525
 H       -21.6860368946       -5.3294006400        0.6334545729
 H       -20.9946208005       -6.8277425439        1.3654538659
 H       -18.9474756207       -5.4795563738        2.2890961152
 H       -19.6144241376       -3.8446600789        1.5575320132
 H       -17.9963489533       -4.4797851437        1.2116386875
 Na      -16.7524908391       -4.1049918087       -1.4037642635
 Na        6.9645505147       -0.7159448974      -15.6048230799
