232

 C       -18.7115568707       -8.0105865163       -0.2315779794
 C       -18.4136223254       -6.4947477528       -0.1445203584
 O       -17.2903063456       -6.0835031369       -0.3965489076
 C       -19.5705189588       -5.5394989354        0.1540803877
 C       -19.6233441558       -4.5439651219       -1.0699745312
 O       -19.0393952423       -3.4920969390       -0.8867641100
 C       -20.4620606518       -4.8834004055       -2.2227242579
 C       -20.1748566439       -3.9070206403       -3.3242263336
 C       -18.6764716400       -3.8920479619       -3.8031564529
 O       -17.9019111317       -4.6486618957       -3.2307129147
 C       -18.0288469893       -2.8078680378       -4.7741205661
 C       -17.1928626121       -1.8467298464       -3.7957347452
 O       -17.8234326094       -1.1495773865       -3.0173609074
 C       -15.6410926018       -1.6873335401       -3.9564236654
 C       -14.9948188428       -1.0744783939       -2.7238465506
 C       -14.1514258748       -2.0883391007       -1.7916233400
 O       -14.5551279986       -3.2161107856       -1.4358619227
 C       -12.6717972349       -1.6971703268       -1.6101497345
 C       -11.8594972587       -1.8508823433       -3.0252068123
 O       -12.5932227351       -2.0055640992       -4.0095917864
 C       -10.4279626412       -1.4149479506       -3.1457828455
 C        -9.6353118109       -2.1084796499       -4.2740638164
 C        -8.2046707524       -2.1355667155       -3.8914299147
 O        -7.8593307535       -2.7433288790       -2.9084445615
 C        -7.1362828952       -1.2812679485       -4.6523499433
 C        -7.7175863014        0.1387687826       -4.7134369936
 O        -8.6266367768        0.4203042907       -3.9421660619
 C        -7.0153188783        1.2074983189       -5.5611899932
 C        -7.9986647649        2.1053462090       -6.3651117735
 C        -8.5973418088        1.2941372229       -7.5596879072
 O        -9.2560923909        0.3816406963       -7.2358882927
 C        -8.2008094964        1.6297560149       -9.0262931797
 C        -6.9649094612        0.6471357453       -9.4711968031
 O        -5.9347173626        1.2173977798       -9.6662766711
 C        -7.0366639703       -0.8557181714       -9.4126034739
 C        -5.9356605374       -1.6016724233      -10.0632723268
 C        -5.6543881962       -0.8972708435      -11.4367277238
 O        -6.4845443773       -0.6253874558      -12.2773293866
 C        -4.1059362483       -0.7691005737      -11.9266277501
 C        -3.2663889745       -2.1130720136      -11.8330047266
 O        -3.3316881363       -2.6458811000      -10.7697510043
 C        -2.3702750876       -2.5856531583      -13.0793248818
 C        -1.7921681515       -3.9543511147      -12.8173798983
 C        -0.2670513615       -4.1266311940      -13.3341573899
 O         0.4193741808       -3.1551947640      -13.6323974913
 C         0.1751771100       -5.5436179882      -13.6394675427
 C         1.6779607006       -5.5027317815      -14.1306367058
 O         1.8582745133       -5.0716776182      -15.2458751218
 C         3.0133042861       -5.6387116818      -13.2359637623
 C         4.2294706625       -4.9803218064      -13.9019135437
 C         5.3993103752       -4.8796934203      -12.8362729491
 O         5.1738704725       -4.9047633275      -11.6517386247
 C         6.8191481717       -4.7920356568      -13.3667783315
 C         7.2209239023       -3.2939544810      -13.7554779605
 O         6.4563938161       -2.3322819018      -13.6021688653
 C         8.5244836186       -3.1824662029      -14.4711221965
 C         9.4637623810       -2.1676290210      -13.6639420462
 C         9.5820873906       -0.7433201030      -14.2323120044
 O         8.9883077654       -0.3017315987      -15.1933503819
 C        10.5747990918        0.3399567174      -13.4242397584
 C         9.4934371718        0.9567637494      -12.5170554779
 O         9.0017056263        0.2549719073      -11.6706445987
 C         9.0059886929        2.3718029287      -12.6003346095
 C         7.3959391437        2.3833655325      -12.3822486291
 C         6.7001953136        2.2458840814      -13.6811022141
 O         7.2377134261        1.6523721271      -14.6005415278
 C         5.2610848106        2.8627310125      -14.0337447993
 C         4.1795430465        1.8863056502      -14.6791823491
 O         3.4946205504        2.1888486973      -15.6111809701
 C         4.1771302632        0.4926720950      -14.0439975752
 C         3.1160254325       -0.5194918656      -14.5985425187
 C         3.6585759961       -1.1329428830      -15.9291915228
 O         4.6851830776       -1.7666171503      -15.7400002070
 C         2.8334142050       -1.0896258241      -17.2235966430
 C         3.7502228985       -0.4433635670      -18.4678987937
 O         4.1313641737       -1.1125085444      -19.3860047589
 C         3.8959136410        1.1074554692      -18.5642388332
 C         5.2743149062        1.4525245102      -19.2809452936
 C         6.4921595872        0.9982544950      -18.4100876229
 O         6.2842247468        0.9338912762      -17.1972374732
 C         7.9967032291        0.7148196183      -19.0392277003
 C         8.0321286730       -0.9048049307      -18.9201068872
 O         7.6347845383       -1.4470462790      -17.8376786904
 C         8.4840819586       -1.8496497711      -19.9885384113
 C         8.0411064257        1.3655833109      -20.4535131135
 C         9.1108313819        1.2768014619      -18.0441680288
 C         2.5691477547       -2.6231568025      -17.6297097574
 C         1.4216721885       -0.2838232223      -17.2714172247
 C         4.5104022584        3.4428001325      -12.8504069191
 C         5.7382985536        3.8146644980      -15.1477299829
 C        11.7812311373       -0.4304045252      -12.6374205031
 C        11.0632894944        1.3139108649      -14.4651104062
 C         7.8257534401       -5.2159501012      -12.3067391302
 C         6.9400085736       -5.7268613821      -14.6224758676
 C        -0.1239958630       -6.4578667318      -12.2845498620
 C        -0.6597080994       -5.9142699473      -14.9292612767
 C        -4.0903484643       -0.1531222314      -13.3607925678
 C        -3.4224860327        0.2659798460      -10.9834210226
 C        -9.3365979421        1.3470760040       -9.9942650001
 C        -7.7869367194        3.0864867007       -9.2342796969
 C        -5.7271882238       -1.2644921750       -3.8649475569
 C        -7.0240993414       -1.8679636053       -6.0611297706
 C       -12.5192453856       -0.2124856414       -1.2238607453
 C       -12.0559200516       -2.4596218026       -0.3502206331
 C       -17.1649123588       -3.3370686809       -5.8715943088
 C       -19.2256835351       -1.8088335396       -5.3711665960
 C       -20.9644322810       -6.0839191163        0.4088113357
 C       -19.2087489179       -4.6982428564        1.4423026397
 H       -19.0179445674       -8.5606864540        0.6436552716
 H       -17.8574755218       -8.5752365147       -0.5814945498
 H       -19.5750669274       -8.2270164802       -0.8581189785
 H       -21.4980522367       -4.8679365482       -1.9046929337
 H       -20.1751328186       -5.8986955458       -2.4645846102
 H       -20.4383666414       -2.8915934248       -2.9775636461
 H       -20.8926240485       -4.1220782101       -4.1009911667
 H       -15.4249298186       -0.9871548195       -4.8190388849
 H       -15.2532346448       -2.6474854984       -4.3003481186
 H       -15.8049396930       -0.4770914254       -2.0674144040
 H       -14.1791893601       -0.4123949785       -2.9651738811
 H        -9.9264893036       -1.4491905331       -2.2155631698
 H       -10.3514378207       -0.3073404491       -3.3744019358
 H        -9.9230209450       -1.6760796172       -5.2285363628
 H       -10.0323737664       -3.1666939219       -4.3682688268
 H        -6.2747900602        0.7851474039       -6.2362902156
 H        -6.4735425103        1.9700730144       -4.9938126588
 H        -7.6252076410        3.1087247267       -6.6827966176
 H        -8.8468957626        2.3223389516       -5.6062963940
 H        -7.9641547801       -1.1678305006       -9.8074760277
 H        -7.1228295119       -1.1206948022       -8.3554325578
 H        -6.3365435862       -2.5572536523      -10.2302892899
 H        -5.0896704439       -1.4374645664       -9.4398668677
 H        -1.5565370697       -1.8575841713      -13.3190787141
 H        -3.1503287903       -2.6100384138      -13.8527873221
 H        -2.4441041653       -4.5356574993      -13.4880596924
 H        -1.8461681258       -4.2006772522      -11.7660809452
 H         3.2641683798       -6.6550812858      -12.9770471386
 H         2.7567388086       -5.1368751848      -12.2914409689
 H         4.1929706916       -4.1220647329      -14.6078525528
 H         4.5645951110       -5.6102103972      -14.8189716820
 H         8.2509326292       -2.7642116225      -15.4741529815
 H         9.1742968728       -4.0842110605      -14.6782962425
 H        10.4868393351       -2.6310800507      -13.6844558376
 H         9.1599056693       -2.0633312255      -12.5852313702
 H         9.1895557561        2.8436858360      -13.4889783822
 H         9.4849571561        2.9375754112      -11.7935021114
 H         7.1001132852        3.4402376356      -11.9891119434
 H         7.0622562507        1.5882132751      -11.7298856718
 H         4.0370122535        0.4087237441      -12.9505270307
 H         5.0889083017        0.0051982204      -14.2589770886
 H         2.1716020352        0.1058690180      -14.5299748036
 H         3.1261424827       -1.3901871912      -13.8537817116
 H         3.7595623902        1.5885412926      -17.5483295684
 H         3.0800930563        1.4082760982      -19.1631730359
 H         5.4504343388        2.5390715475      -19.4850077717
 H         5.2688176012        0.8006531119      -20.1891739681
 H         7.8482578112       -2.6714423466      -20.0782463403
 H         9.4170428136       -2.3158850924      -19.6953731068
 H         8.7203537955       -1.4488252469      -20.9573988080
 H         9.0526107694        1.6064406184      -20.7169274777
 H         7.4619784866        2.3127341363      -20.4293001208
 H         7.5040546662        0.7414512712      -21.1834809324
 H        10.1215101034        1.2397362326      -18.5079467824
 H         9.1493194832        0.6194600221      -17.1412013910
 H         9.0049530980        2.2806124032      -17.6464378025
 H         3.5062227320       -3.1582541193      -17.6743771469
 H         2.0846795554       -2.5552382620      -18.6427968587
 H         1.9127836820       -3.0533618291      -16.9440933590
 H         1.3676662515        0.7764448861      -16.9023985660
 H         0.7511605532       -0.8801596625      -16.5808203955
 H         1.1115542825       -0.1720965506      -18.2923384930
 H         4.2034717148        2.6748420269      -12.1743383919
 H         3.7944232614        4.1153892031      -13.2377773949
 H         5.1947451700        4.1012438771      -12.2661287362
 H         6.5276139671        4.5657559788      -14.8545958521
 H         4.8828765675        4.4504912987      -15.4592107615
 H         5.9278350837        3.1779140274      -16.0538528733
 H        12.3245167509        0.4341592964      -12.1287681698
 H        12.3706823434       -0.7586061266      -13.4965514446
 H        11.4355848070       -1.2373751314      -11.9400467910
 H        10.2667615171        1.5656733655      -15.1039454555
 H        11.8688851361        0.8672345353      -15.0632488439
 H        11.5971927894        2.1836283365      -13.9842826201
 H         7.8983682658       -6.3356770853      -12.1969799213
 H         7.5609566125       -4.8288508358      -11.3285584208
 H         8.8996131366       -4.9925455765      -12.5449917652
 H         6.5983484597       -6.6888383954      -14.3069179921
 H         8.0328884154       -5.6942682632      -14.9511286214
 H         6.3717843567       -5.4015648224      -15.5402174329
 H         0.4838566648       -5.9451120785      -11.5401714668
 H         0.0973772396       -7.5599754733      -12.2960589984
 H        -1.1602975203       -6.3708781543      -11.9499964952
 H        -1.5935584935       -6.4530578431      -14.6708403388
 H        -0.0190386520       -6.5350294124      -15.6081381542
 H        -0.8244164888       -4.9150810111      -15.4933102379
 H        -3.0187056192        0.0574568748      -13.6386989991
 H        -4.6124643380        0.7316686133      -13.2961284779
 H        -4.5764039878       -0.7803197067      -14.0857371990
 H        -3.2869902126       -0.1942418472      -10.0047367206
 H        -3.9537073498        1.2221927819      -10.9058330720
 H        -2.3750817974        0.4258041985      -11.3181256178
 H        -9.5590032178        0.2382977197       -9.8473609104
 H        -8.9172875150        1.5509860089      -10.9635209653
 H       -10.2148110389        1.9592899212       -9.7079934784
 H        -8.4351008152        3.7365822678       -8.6731332161
 H        -7.7814698930        3.1998432405      -10.3020732675
 H        -6.7298396342        3.2490856628       -8.8895404100
 H        -5.2043119966       -2.2540651397       -4.0914991941
 H        -5.9489669123       -1.2101487606       -2.8046853560
 H        -4.9858419690       -0.5145416836       -4.0593382033
 H        -6.4270646184       -2.8445831203       -6.1035591778
 H        -6.4458966296       -1.1328948542       -6.6674354074
 H        -8.0149374418       -1.8635287018       -6.4091308387
 H       -13.5744301560        0.0963143568       -1.0273831397
 H       -12.2249557585        0.4343080874       -2.1016703786
 H       -12.0267115514        0.0814216927       -0.3274015543
 H       -10.9417685792       -2.2925284340       -0.2680122231
 H       -12.2543371047       -3.5276203456       -0.3146885808
 H       -12.4869875422       -1.7723507714        0.3939229022
 H       -17.6937877400       -4.0603770828       -6.5855237849
 H       -16.2788508096       -3.9190321184       -5.6320359931
 H       -16.8279153606       -2.4696890751       -6.4570829077
 H       -19.8845484322       -1.4699453175       -4.4994318079
 H       -19.7896444661       -2.3694932837       -5.9892814924
 H       -18.7571268900       -0.9775394817       -5.8210765362
 H       -21.3740892735       -6.5178183692       -0.4896520153
 H       -21.5857563006       -5.3394958033        0.7805106202
 H       -20.9986196873       -6.9533042902        1.1315462912
 H       -19.1490045112       -5.4738047603        2.2086443496
 H       -19.9153987579       -3.9490559523        1.8081505047
 H       -18.2898680107       -4.2148146236        1.3986910886
 Na      -16.8495055856       -3.7272236023       -1.2271810148
 Na        6.7259186976       -0.8953590930      -15.6544584891
