232

 C       -17.8968317736       -7.6159918793        0.7026263066
 C       -18.0521017452       -6.2284094857        0.2204827813
 O       -17.1839602707       -5.6453317880       -0.3844581835
 C       -19.5452134649       -5.7252032206        0.2918519672
 C       -19.7297404987       -4.5229017234       -0.7114923682
 O       -19.2779642559       -3.4294941145       -0.3642757174
 C       -20.4501720873       -4.8225228204       -2.0105808647
 C       -20.2134635443       -3.8065692590       -3.1436344550
 C       -18.6375872925       -3.6025572479       -3.3268676705
 O       -17.7959684824       -4.2602869464       -2.7177427040
 C       -18.1475242518       -2.4858813150       -4.4003084530
 C       -16.8843237171       -1.8742828302       -3.4891388363
 O       -17.0653640684       -1.5021141497       -2.3457347982
 C       -15.4528721401       -2.1155636452       -4.0638582511
 C       -14.4484820842       -1.3667485388       -3.2372978342
 C       -13.9424966395       -2.2342934514       -2.0750607674
 O       -14.7559403368       -3.0329817187       -1.5334930184
 C       -12.4249830643       -2.2502935832       -1.5760431606
 C       -11.5333345505       -2.2404200020       -2.8271081120
 O       -11.8823269075       -2.7376837258       -3.8886323225
 C       -10.1431321512       -1.6243307777       -2.6536987875
 C        -9.4107102963       -1.4645646339       -3.9604101701
 C        -7.8710913046       -1.3234898704       -3.7534779293
 O        -7.1982332946       -1.9189613210       -2.9330635629
 C        -7.1906180135       -0.5446832134       -5.0166584044
 C        -7.8099128721        0.8448064941       -5.3213175022
 O        -8.9688811938        1.1141566163       -4.9084008711
 C        -7.0320631522        1.8785966934       -6.2430299623
 C        -8.0370862680        2.5306756170       -7.2102065258
 C        -8.5840625334        1.6047774766       -8.2921894742
 O        -8.9704407113        0.5032833933       -8.1027061232
 C        -8.6373990437        2.2011867161       -9.8107113818
 C        -7.3227722528        1.5277464945      -10.3796732381
 O        -6.2669526531        2.0989695468      -10.1220086948
 C        -7.3255101304        0.1538984678      -11.0006720305
 C        -5.9662843485       -0.6519526070      -10.7158473456
 C        -5.1617967701       -0.9578865019      -12.0197464278
 O        -5.6923894943       -1.2419432432      -13.1233905329
 C        -3.6122728137       -0.8612821517      -11.9324531553
 C        -3.0441447063       -2.3788598145      -11.7923386180
 O        -3.1875511925       -2.8742319554      -10.7203776625
 C        -2.3727770282       -2.9266879976      -13.0593618255
 C        -1.5932125238       -4.1934519037      -12.8105843911
 C        -0.1756325083       -4.0119282780      -13.5630173471
 O         0.3376924577       -2.8811539261      -13.6821837357
 C         0.5918409202       -5.3686307236      -14.0711066399
 C         2.1489049807       -5.3024081270      -14.4666946931
 O         2.5697289293       -6.1812802298      -15.1846828969
 C         2.9112522517       -4.1446371419      -13.9196638757
 C         4.4556624671       -4.3060953116      -14.2906005891
 C         5.3382868589       -4.5615515309      -13.1471746318
 O         4.9778562127       -4.4921586808      -11.9852127023
 C         6.8804844007       -4.9001229125      -13.4251640876
 C         7.6645010833       -3.8634810336      -14.1946765606
 O         7.0012700587       -3.1519782838      -14.9690932514
 C         9.2225142574       -3.6945780049      -13.9440995961
 C         9.5734261789       -2.5389792186      -12.9535376226
 C         9.8810333958       -1.1541143843      -13.5987494332
 O         9.7414051714       -0.8528717930      -14.7871870546
 C        10.2730708663       -0.1022356785      -12.5321124665
 C         8.9203411892        0.5646524441      -12.0004003646
 O         7.9673341381       -0.2409572995      -11.8694662645
 C         8.6503219288        2.1464115611      -11.7754982435
 C         7.2787143687        2.6978906607      -12.2517480212
 C         6.8550223241        2.2724775303      -13.5994943308
 O         7.3327103536        1.3373889361      -14.2112385536
 C         5.5300173591        3.0442287882      -14.2119877893
 C         4.2258404610        2.0437640301      -14.4016381301
 O         3.5495580189        2.1799653323      -15.3960164222
 C         4.0670161611        0.7704250202      -13.4850945973
 C         3.0250994356       -0.1174552809      -14.2356222564
 C         3.5749225141       -0.6927403015      -15.6129075727
 O         4.6047742577       -1.2465793581      -15.8048266542
 C         2.3693781256       -0.9501647392      -16.7587179294
 C         3.1008716783       -1.0548876891      -18.1188369564
 O         3.5059715121       -2.2084926148      -18.4620005767
 C         3.1811049562        0.1306328703      -19.0907714274
 C         4.5325012445        0.1697082558      -19.7716550430
 C         5.6949120263        0.3585571537      -18.7826175025
 O         5.4035399597        0.5972260323      -17.6615850768
 C         7.2142261519        0.2098324627      -19.1048795911
 C         7.6032763916       -1.3028397835      -18.7175984330
 O         7.7631096714       -1.6991128632      -17.6266525145
 C         7.8250849387       -2.2792947041      -19.8475996419
 C         7.4344660697        0.5345925554      -20.5702776882
 C         8.0940261271        1.1830377002      -18.2218462095
 C         1.6303516182       -2.3117663009      -16.5662022971
 C         1.3573486071        0.1842449366      -16.7844373238
 C         4.9891180091        4.1635295030      -13.4354806449
 C         6.0431711297        3.5642665125      -15.5913979410
 C        11.1091906379       -0.5963520353      -11.2417735154
 C        11.1755153824        0.9492473176      -13.2225611430
 C         7.4036067420       -5.1744080737      -11.9266351405
 C         6.9377555527       -6.2137597624      -14.3280887508
 C         0.7344777204       -6.2040731239      -12.7941741520
 C        -0.2825206627       -6.1077203475      -15.0821725237
 C        -3.1238513401       -0.2346724010      -13.2474779444
 C        -3.0725732216       -0.0039766335      -10.7328943009
 C        -9.9678249598        1.6551734556      -10.3193735471
 C        -8.4532687065        3.7147429947       -9.8904025433
 C        -5.7917885089       -0.2560046380       -4.5412425477
 C        -7.3821499242       -1.5482862313       -6.2525757999
 C       -12.2775829455       -0.8276231344       -0.8067483383
 C       -12.0548203691       -3.4259120927       -0.6178512407
 C       -17.4979864400       -3.3108913098       -5.5505111655
 C       -19.1431635848       -1.4904997910       -4.8611281623
 C       -20.5705645393       -6.8468091098       -0.0747903464
 C       -19.6073610648       -5.2916385128        1.7971629468
 H       -18.4684561670       -7.8281036905        1.6326812012
 H       -16.8254505924       -7.7734586546        0.8069809119
 H       -18.1310474461       -8.4510887854        0.0396014924
 H       -21.5278414376       -4.9739537949       -1.9068115173
 H       -19.8679658232       -5.7202981002       -2.3667700256
 H       -20.6009951067       -2.7860019418       -3.1023361431
 H       -20.6627160103       -4.0760129693       -4.0685609810
 H       -15.5024480144       -1.9823547676       -5.1882690739
 H       -15.2917532877       -3.1503946677       -3.8589055458
 H       -15.0097453041       -0.4919201674       -2.8477892724
 H       -13.6283060536       -0.9905331820       -3.7725822960
 H        -9.4704562478       -2.2918458819       -2.0895455480
 H       -10.1773783862       -0.6630758380       -2.0925307344
 H        -9.9118070690       -0.6391845945       -4.4240236318
 H        -9.5542271683       -2.3833490150       -4.5491742638
 H        -6.2312689497        1.4165087055       -6.8291979877
 H        -6.5661072972        2.7040337250       -5.6707948384
 H        -7.6683954204        3.3870732143       -7.7569632014
 H        -8.9878601433        2.8129288745       -6.6666569048
 H        -7.2660132147        0.3313026542      -12.0847513898
 H        -8.2115095550       -0.4001239749      -10.7104082359
 H        -6.2404505279       -1.5623660109      -10.1704562487
 H        -5.3301092433       -0.2436161808       -9.8959366369
 H        -1.8181452013       -2.2075421183      -13.6143461790
 H        -3.1977971692       -3.1934606343      -13.6873297974
 H        -1.9920948571       -5.2543571864      -12.9451227075
 H        -1.1606789380       -4.2772691545      -11.7764420530
 H         2.8184972804       -4.1468635926      -12.8293522300
 H         2.4843034250       -3.1788599714      -14.2867829130
 H         4.8118064182       -3.4574181417      -14.8142894070
 H         4.4421646618       -5.0563562094      -15.0486417867
 H         9.6456526602       -3.5300387628      -14.9140078998
 H         9.6474889836       -4.6137024491      -13.4473117440
 H        10.4538987543       -2.7928982888      -12.3106923290
 H         8.7522444983       -2.3934446501      -12.2326444223
 H         9.3500718090        2.6774295949      -12.4430555360
 H         9.0181214589        2.3987813946      -10.6979533875
 H         7.2667270243        3.7958345428      -12.1336351030
 H         6.4773634327        2.3510207894      -11.6678416635
 H         3.6105383509        1.1529520469      -12.5400106084
 H         4.9817341723        0.3602885425      -13.1777079625
 H         2.0683243715        0.3886674780      -14.3909458857
 H         2.6525439101       -0.9874774037      -13.7359745696
 H         2.9994506180        1.0798784426      -18.4830152989
 H         2.2785616577        0.1611282450      -19.7100114763
 H         4.6350453966        0.9141209679      -20.5570640430
 H         4.8679932338       -0.7365255461      -20.2954881963
 H         7.6405948130       -3.2419007480      -19.3675006552
 H         8.8897548994       -2.2111910247      -20.1622092827
 H         7.2866783543       -2.2445692304      -20.7218462838
 H         8.4167499221        0.8721572925      -20.6105552002
 H         6.7519444472        1.2985609533      -20.8673479871
 H         7.3761393444       -0.3196691728      -21.3587909072
 H         9.1116455860        1.2303753765      -18.6763048528
 H         8.1831553132        0.8454774255      -17.1667954204
 H         7.6835816133        2.1914762590      -18.1935973076
 H         2.3596204735       -3.0582246231      -16.3254339986
 H         1.1424803098       -2.6818089256      -17.4633421470
 H         0.9883383033       -2.1054261351      -15.7670692617
 H         1.8489251811        1.1362551351      -16.4653205761
 H         0.5140159479        0.1307714572      -16.0059803645
 H         0.8774451777        0.2844634982      -17.7400069973
 H         4.6919795730        4.9950520739      -14.0733090706
 H         5.7201684257        4.7525725947      -12.9550466551
 H         4.2257844884        3.7468293389      -12.7526851641
 H         6.8830377204        4.2557996448      -15.4695934919
 H         5.2125725337        4.1941032628      -16.0450664712
 H         6.5330968207        2.8563873205      -16.2920861011
 H        11.2904931237        0.4109641182      -10.7566154062
 H        12.0106103343       -1.0385961315      -11.6445543135
 H        10.6276306652       -1.2856574131      -10.5283809762
 H        10.5925525979        1.4807405231      -14.0591074904
 H        11.9906652453        0.3233937547      -13.6165069060
 H        11.6407278650        1.5628246055      -12.4523715487
 H         6.6258625434       -5.6807869566      -11.3382471305
 H         7.4805227530       -4.2371993895      -11.3654999444
 H         8.4291530252       -5.6375600939      -11.8752960003
 H         6.2977362611       -6.9101846930      -13.8593276828
 H         7.9613565005       -6.5933817678      -14.2198259592
 H         6.7546103892       -5.8828882860      -15.3356511481
 H         1.2101586587       -5.5638370119      -12.0711881529
 H         1.2659351478       -7.1485052828      -13.1011229630
 H        -0.2186104653       -6.5483021486      -12.3885935819
 H         0.2561748303       -7.0151068640      -15.4058909473
 H        -0.7713142368       -5.4496036693      -15.8615601082
 H        -1.2233915457       -6.4209788115      -14.4918065288
 H        -2.0274499442       -0.4440394586      -13.2147702793
 H        -3.3218264412        0.7834559682      -13.2167381838
 H        -3.6283375874       -0.7039060422      -14.0611815886
 H        -3.2693007609       -0.3817490936       -9.7285293591
 H        -3.5518122361        0.9630386382      -10.7576129886
 H        -2.0131414191        0.3274066926      -10.7398724874
 H       -10.1830931163        0.6556764636       -9.8170252216
 H        -9.8551703645        1.5088643047      -11.3885429791
 H       -10.7960393434        2.3713447383      -10.0124152174
 H        -9.0850339191        4.1345398864       -9.1122904329
 H        -8.9681855159        4.0564359656      -10.7743637472
 H        -7.3946473155        4.0774666556       -9.8223893648
 H        -5.1445526644       -1.0952320081       -4.1080670715
 H        -5.8265914277        0.4697128684       -3.7437794888
 H        -5.2546459381        0.1609430544       -5.3633881028
 H        -7.0719289307       -2.5697946555       -5.8426387372
 H        -6.8631016758       -1.2694610711       -7.1831627157
 H        -8.3861562342       -1.6524768624       -6.5971815305
 H       -12.8534509605       -0.6465571581        0.0856272157
 H       -12.6299140189       -0.0293096162       -1.4837450264
 H       -11.1646736406       -0.6576425244       -0.5865362892
 H       -11.2657185799       -3.2014634262        0.1616494550
 H       -11.7963547921       -4.2122705174       -1.2720385457
 H       -12.9985286906       -3.7626178569       -0.1224047007
 H       -18.3192021059       -3.8470383976       -6.0607040336
 H       -16.7215397741       -4.1103034043       -5.3117574211
 H       -17.0923704469       -2.7310425015       -6.3673385748
 H       -19.3858508087       -0.8000623153       -4.0737329734
 H       -20.0612791480       -1.9570630076       -5.1969055879
 H       -18.7380308359       -0.8579140175       -5.6895576198
 H       -20.5751496348       -7.3155109677       -0.9851668995
 H       -21.5307325347       -6.4021328032        0.0045763678
 H       -20.5061242363       -7.6240247949        0.7017243004
 H       -19.4558777003       -6.0936522472        2.5192355243
 H       -20.5809850461       -4.8181253035        1.9829951331
 H       -18.9041420349       -4.5973772761        2.1070312707
 Na      -16.9733450731       -3.2548035305       -0.8447892634
 Na        6.9398291583       -0.8095525892      -15.5595135488
