232

 C       -17.7396021657       -7.6766530823        0.8172774842
 C       -18.0524936167       -6.3731767102        0.1676998208
 O       -17.2089913897       -5.6349050879       -0.2471380885
 C       -19.6137952413       -5.7329752920        0.3002816442
 C       -19.7255857124       -4.5072159803       -0.6566967079
 O       -19.3522976496       -3.3961060943       -0.3481644838
 C       -20.3541476972       -4.8349137281       -1.9549517266
 C       -20.0543549956       -3.7591772984       -3.0611096099
 C       -18.5831396581       -3.5211675149       -3.3052638966
 O       -17.7446850334       -4.2294655656       -2.8065701449
 C       -18.1502465114       -2.4619931894       -4.3426225567
 C       -16.9236840062       -1.9309269169       -3.5379089618
 O       -17.0527501282       -1.3720293749       -2.4882442017
 C       -15.4169844879       -2.0251467768       -4.1009345474
 C       -14.3248360390       -1.3845257236       -3.1727676562
 C       -13.9400867555       -2.3383469823       -2.0701059598
 O       -14.7014905299       -3.1061681448       -1.5680334984
 C       -12.4345390204       -2.2672696624       -1.6303523395
 C       -11.4859134605       -2.3298592296       -2.8007750985
 O       -11.8274275406       -2.8171757094       -3.8261690514
 C       -10.0699844927       -1.7333800201       -2.5567835947
 C        -9.3868737214       -1.4593232301       -3.8822477469
 C        -7.8913638000       -1.3064397538       -3.8568232638
 O        -7.2494301882       -1.6592853553       -2.8885120575
 C        -7.2095620082       -0.5460186424       -5.0025120889
 C        -7.9441789670        0.8211421851       -5.4623657898
 O        -8.9348136342        1.2658045059       -4.9782098840
 C        -7.1221141006        1.7382364279       -6.3141520651
 C        -7.9273642573        2.6562174582       -7.2840882701
 C        -8.5926350813        1.7760641791       -8.4462349735
 O        -8.8933205613        0.5748004111       -8.1872765661
 C        -8.7271865783        2.2351092694       -9.8946775049
 C        -7.3020343317        1.5476622446      -10.4198350613
 O        -6.2802075790        2.2022742698      -10.1784242079
 C        -7.3690597233        0.0954536895      -10.9699710921
 C        -6.0602316431       -0.6743519811      -10.8550166971
 C        -5.1620637129       -0.8706050742      -12.0650256835
 O        -5.6679895828       -1.1727094707      -13.1065016670
 C        -3.5114357175       -0.8450274423      -11.9457460540
 C        -3.0682168833       -2.3390025016      -11.8308848021
 O        -3.0318060981       -2.9902871801      -10.7746593233
 C        -2.5237873520       -3.0613768179      -13.1350940850
 C        -1.4790988693       -4.2076714532      -12.7568362081
 C        -0.0582722702       -4.0614235692      -13.5061485152
 O         0.4210986719       -2.9439971573      -13.5764610182
 C         0.5018167695       -5.4098870006      -13.9373864745
 C         2.0412223681       -5.2050331670      -14.5248047757
 O         2.5636137256       -6.1062350522      -15.1220307936
 C         2.8537177502       -4.1579573238      -13.8842362288
 C         4.3515856323       -4.3126282083      -14.2875033166
 C         5.2975234761       -4.5502827305      -13.1330626889
 O         4.9381003880       -4.3516684462      -12.0013477066
 C         6.8280614926       -5.0068763648      -13.3962650202
 C         7.7326083006       -3.8511174781      -14.0737379944
 O         7.1947675015       -3.1192055649      -14.8752328400
 C         9.2360350219       -3.6638811917      -14.0292632948
 C         9.6918143021       -2.6291454370      -12.9898975187
 C         9.8732880880       -1.1702970397      -13.4635754396
 O         9.7562761367       -0.8577907072      -14.6070815373
 C        10.3176554332       -0.0635617097      -12.3592127764
 C         8.8618117002        0.5425849334      -11.8799498965
 O         8.0009457178       -0.2313915580      -11.6480437675
 C         8.6980539912        2.0357556528      -11.8112651592
 C         7.2970523292        2.5747139273      -12.1842588713
 C         6.7078005880        2.2029501681      -13.5978642052
 O         7.3420241721        1.3703122358      -14.2357225538
 C         5.4841060291        3.0007964584      -14.2773276138
 C         4.3241723741        2.0107562790      -14.5829318052
 O         3.4622814996        2.3554961542      -15.4385284058
 C         4.0471278234        0.8476652146      -13.7514762598
 C         2.9825222032       -0.1518803769      -14.3093423474
 C         3.3944945460       -0.7487103573      -15.6109384704
 O         4.5260759543       -1.1672896845      -15.7509775487
 C         2.3391867642       -0.9024438367      -16.7366159176
 C         3.0685351485       -1.0529001469      -18.1723161362
 O         3.5803501755       -2.0778404820      -18.5465426913
 C         3.0713261961        0.0938735458      -19.1864705233
 C         4.4334262010        0.1886311677      -19.7558807289
 C         5.6398511838        0.2632052313      -18.6781111101
 O         5.4438804757        0.5843563312      -17.5329161596
 C         7.2803291379        0.1380625665      -19.1763530355
 C         7.6921084259       -1.4473912656      -18.8701858583
 O         7.8402815972       -1.6237059920      -17.6269450861
 C         7.8908639363       -2.5855200464      -19.8530601147
 C         7.4113142356        0.5278286747      -20.6659174322
 C         8.0344461370        1.1363736834      -18.3323696148
 C         1.5689640158       -2.1996115467      -16.6057446988
 C         1.2679934029        0.2533112049      -16.7417414200
 C         4.8786031234        4.1591570302      -13.4082566457
 C         5.9627938003        3.4971123908      -15.6862341444
 C        11.0630536764       -0.7703245179      -11.1835686773
 C        11.2013033228        0.9644918867      -13.1582773652
 C         7.4806257176       -5.2408574423      -11.9601436282
 C         6.9145521695       -6.2928228132      -14.2995175209
 C         0.7568673462       -6.1748503560      -12.5899200715
 C        -0.3076628206       -6.0566132117      -15.1300073967
 C        -2.9324727882       -0.1730533132      -13.2430891914
 C        -3.1224711755       -0.0303565909      -10.7253748601
 C       -10.0341703515        1.6151675414      -10.5126830971
 C        -8.5639966930        3.7909822241       -9.9630222170
 C        -5.7735754964       -0.2702618157       -4.4943280455
 C        -7.3375142454       -1.4359165119       -6.2772556556
 C       -12.3028106738       -0.9664463783       -0.8072809911
 C       -11.9746688150       -3.3784202004       -0.6278646635
 C       -17.7275941349       -3.3254591661       -5.5811465085
 C       -19.1723061538       -1.4854755390       -4.8136113629
 C       -20.4944779105       -6.8948246779       -0.1098507261
 C       -19.6947335659       -5.2769099409        1.7603196496
 H       -18.3727722923       -7.8512800183        1.7372222127
 H       -16.6647380773       -7.8347401907        0.9365571866
 H       -18.0009193955       -8.5186017843        0.2039507719
 H       -21.4847555060       -4.6031997855       -1.8156394640
 H       -20.1622971718       -5.8641739323       -2.2719595378
 H       -20.4332019199       -2.7169372894       -2.8552967232
 H       -20.5913428973       -3.8936668969       -4.0069543929
 H       -15.4414462864       -1.6692093036       -5.1138322011
 H       -15.0860964826       -3.0773239892       -4.1258031974
 H       -14.7114255924       -0.4626217449       -2.8048259932
 H       -13.4462545170       -1.0970211162       -3.7690522082
 H        -9.4504335473       -2.3433412455       -1.9293467101
 H       -10.2244641734       -0.7416998327       -2.0562819937
 H        -9.8261452888       -0.5686766516       -4.1905205136
 H        -9.6741768535       -2.2530185175       -4.6015141303
 H        -6.2921862445        1.2780772519       -6.8440685298
 H        -6.6303491476        2.3708039272       -5.5515650394
 H        -7.3882099782        3.4764813993       -7.7309937033
 H        -8.7469973567        3.0440427204       -6.7628168237
 H        -7.6905912319        0.1147151717      -12.0074651171
 H        -8.1116409933       -0.4052651371      -10.2742895363
 H        -6.3398508886       -1.7326512317      -10.4821254129
 H        -5.5430064046       -0.4170690666       -9.9245499949
 H        -2.0722812406       -2.3261246331      -13.7725794956
 H        -3.2990286209       -3.4975277006      -13.7266677960
 H        -1.7343051468       -5.2429853846      -13.0220061160
 H        -1.3007964523       -4.3484185933      -11.6814841612
 H         2.7818012390       -4.2589094292      -12.7955826550
 H         2.4367611600       -3.1616533534      -14.1407178275
 H         4.6159271582       -3.4910530277      -14.9846544805
 H         4.2365403332       -5.2123687065      -14.9343473813
 H         9.5005959889       -3.3824784302      -15.0342588492
 H         9.6871495622       -4.6258488683      -13.7882394053
 H        10.6321261184       -2.8504904129      -12.6633800785
 H         9.0583125142       -2.7166133997      -12.0956387998
 H         9.4889639986        2.6674083336      -12.3122723671
 H         8.8707193037        2.2362928161      -10.7533261307
 H         7.3543331436        3.6813817861      -12.0153149905
 H         6.6433127206        2.2405632978      -11.4133221071
 H         3.7873432194        1.2497204127      -12.7467250933
 H         5.0477156684        0.3601207180      -13.5025642646
 H         1.9856315106        0.2294558294      -14.3776045077
 H         2.8548639663       -1.0271311673      -13.6538851595
 H         2.6445247005        1.0570683590      -18.8373594889
 H         2.3349717328       -0.1386969474      -19.9718045348
 H         4.5198654788        1.1156399529      -20.2892728803
 H         4.7390268587       -0.5236083340      -20.5022138821
 H         7.4500198858       -3.5104535321      -19.3847064736
 H         8.9108993629       -2.7272770267      -20.1852603378
 H         7.3318753429       -2.3981059658      -20.7832627943
 H         8.5292739095        0.5276893351      -20.8437968995
 H         6.9247531447        1.4660653041      -20.9411444808
 H         7.0239487268       -0.2082442535      -21.2662002332
 H         9.1331225172        1.0974275809      -18.5418573166
 H         7.8463209194        1.2019045424      -17.2542479600
 H         7.6803835727        2.1154219036      -18.7353376788
 H         2.2736830763       -3.0119571597      -16.7804166798
 H         0.8411711077       -2.2712512017      -17.3374969877
 H         1.1517074737       -2.1627661910      -15.5667938877
 H         1.6722506688        1.2553261334      -16.6391675443
 H         0.5682981434        0.2329401433      -15.9241040679
 H         0.7392448044        0.1664338936      -17.6732067146
 H         3.9726574922        4.6274919875      -13.8164231032
 H         5.4781260283        5.0717121148      -13.5172241302
 H         4.8493116631        3.7648464515      -12.3884674343
 H         6.9145276349        3.9716493447      -15.7357511553
 H         5.1944947741        4.2613639137      -15.9939684048
 H         6.1024892185        2.7213467157      -16.4408751558
 H        11.2193246745       -0.1840432181      -10.2786754624
 H        11.9269729541       -1.1940986331      -11.7039265030
 H        10.5232468790       -1.6486472143      -10.9337051329
 H        10.4963057138        1.3925124854      -13.9660502090
 H        12.0550201208        0.4336605308      -13.5948392075
 H        11.6074241935        1.6704204320      -12.4419009837
 H         6.7619893716       -5.6154821245      -11.2558463797
 H         7.6507665485       -4.2757348935      -11.4473962522
 H         8.4550260156       -5.7959712183      -11.9886061582
 H         6.2286869333       -7.0571607316      -13.9571660345
 H         7.8856009165       -6.5826030790      -14.1359037837
 H         6.8594432193       -5.9573967896      -15.2702480071
 H         1.4065370456       -5.5979990573      -11.9718906616
 H         1.1016560071       -7.1320786696      -12.9512861337
 H        -0.1399551264       -6.3994032000      -12.0559020970
 H         0.0582775603       -7.0834838998      -15.1405293627
 H        -0.1248654819       -5.4934556908      -16.0615937346
 H        -1.3695859484       -5.9954326917      -15.0672178819
 H        -1.8735934039       -0.2179887004      -13.0354220707
 H        -3.3338122206        0.8731039276      -13.3555513395
 H        -3.2071998285       -0.8012823699      -14.0936514603
 H        -3.4325976592       -0.4358845416       -9.7502368593
 H        -3.4678046659        0.9488983961      -10.7690732294
 H        -2.0359683197        0.1358828206      -10.6042569559
 H       -10.0970789388        0.5673181566      -10.2963609675
 H       -10.0469749921        1.8072561860      -11.5954977392
 H       -10.8665808725        2.1169356923       -9.9178824910
 H        -9.2411269057        4.2182960621       -9.2155800383
 H        -8.9960967584        4.0928410484      -10.9221504407
 H        -7.5456940610        4.1640093000       -9.8457625538
 H        -5.3330247116       -1.1258606508       -4.0681938570
 H        -5.7699246435        0.4707518472       -3.7143997338
 H        -5.1274256636       -0.0184744249       -5.3327608946
 H        -6.8306034976       -2.3848332358       -6.1384368463
 H        -7.0230273025       -0.9161026774       -7.1677314733
 H        -8.4105289105       -1.6470648302       -6.6019180608
 H       -12.8949777862       -1.0106075516        0.1084617784
 H       -12.6763362539       -0.0898721212       -1.3086162498
 H       -11.2272962528       -0.8521888396       -0.4844089491
 H       -11.0985567242       -3.1238198972       -0.0846452246
 H       -11.7941172716       -4.2302734360       -1.2626092224
 H       -12.7515909887       -3.5870259535        0.0626805345
 H       -18.5919136610       -3.6435832038       -6.0933799797
 H       -17.1434748169       -4.2498576964       -5.3483616607
 H       -17.1177415009       -2.7886909797       -6.3095297258
 H       -19.7530425917       -0.9604980647       -4.1274564869
 H       -19.9037473753       -2.0737985443       -5.4805870836
 H       -18.6429708040       -0.7160739824       -5.4373522193
 H       -20.1292549544       -7.5559038591       -0.8807797716
 H       -21.5104634015       -6.5604883623       -0.4586493930
 H       -20.6064391347       -7.5058598239        0.7105941823
 H       -19.6081083581       -6.0444471324        2.5107457664
 H       -20.6630156332       -4.7907193228        1.8813745818
 H       -18.9573146687       -4.5456730057        2.1247896609
 Na      -16.9448416786       -3.2309094502       -0.6295162192
 Na        6.9522655831       -0.7829299965      -15.5271335228
