232

 C       -17.6355432885       -7.6670813721        0.8249927149
 C       -17.9836042742       -6.2340766040        0.4762738703
 O       -17.1450081936       -5.3946077805        0.4178832925
 C       -19.4929736665       -5.8957222154        0.3808310153
 C       -19.6316133102       -4.6750704693       -0.5934739069
 O       -19.1190741584       -3.5926048898       -0.3666747523
 C       -20.3728887604       -4.7935465533       -1.9101090222
 C       -20.1474108399       -3.5705347257       -2.8084772421
 C       -18.5928930030       -3.5476400341       -3.2219761729
 O       -17.8017190090       -4.3476925952       -2.8100911269
 C       -18.0195509325       -2.4828682424       -4.2789217263
 C       -16.8067093676       -1.8237998043       -3.5877170860
 O       -16.9781951445       -1.0962341544       -2.6348194100
 C       -15.3398154779       -1.9655174706       -4.2029737157
 C       -14.2570233699       -1.5086807759       -3.0630295591
 C       -13.9113656005       -2.5429731788       -2.0469831163
 O       -14.7693717350       -3.2069744891       -1.4558193230
 C       -12.4786344198       -2.4472456610       -1.4260232626
 C       -11.5130183832       -2.5956007177       -2.7350725730
 O       -11.9163270655       -3.0865244744       -3.7293936686
 C       -10.0367280672       -1.9700303392       -2.6116544282
 C        -9.3750377849       -1.4496557130       -3.9909451917
 C        -7.8792796473       -0.9106565242       -3.8705909859
 O        -7.3296385053       -0.8374828718       -2.7977275208
 C        -7.1131674371       -0.4345914672       -5.1560598591
 C        -7.7366699873        0.9551870711       -5.6670834610
 O        -8.7920056922        1.3648315281       -5.2392591660
 C        -7.0267469077        1.9578409373       -6.5234799205
 C        -7.8250217877        2.7040008633       -7.6399563244
 C        -8.5524622945        1.7452439222       -8.6950777221
 O        -9.0321130875        0.6663647051       -8.3285315449
 C        -8.5726552276        2.1603450659      -10.1655712459
 C        -7.2998701230        1.5543117408      -10.7836187935
 O        -6.2518004321        2.2494536137      -10.6992843260
 C        -7.2831891166        0.1053872082      -11.1273681823
 C        -5.9215441619       -0.5194745564      -10.8206789265
 C        -5.1301779869       -0.6959731906      -12.0831196519
 O        -5.6176270418       -0.7773905792      -13.2150530488
 C        -3.5455733658       -0.7582614033      -11.9469397540
 C        -3.0589733814       -2.2615257464      -11.8611546187
 O        -2.8964540573       -2.8626575900      -10.8138740309
 C        -2.5248040059       -2.9559844866      -13.0977664543
 C        -1.6396586194       -4.2311624164      -12.7252826216
 C        -0.1713874665       -4.1396563996      -13.2453329509
 O         0.2438236563       -2.9902900091      -13.4495271529
 C         0.5825558129       -5.4432382051      -13.6594513025
 C         2.1028753203       -5.2457736818      -14.3312661944
 O         2.4195849074       -5.8890164438      -15.2921044080
 C         2.9183824771       -4.1322079063      -13.7858226641
 C         4.4716549393       -4.3480482709      -14.1537384196
 C         5.4389768791       -4.4428154139      -12.9549910972
 O         5.2785515134       -3.9798233714      -11.8673949043
 C         6.9276717672       -4.9504529568      -13.3780717175
 C         7.6867666886       -3.7106701386      -14.0690368958
 O         7.0509578253       -2.7103539479      -14.3889818520
 C         9.2219470986       -3.6602952521      -14.1337758772
 C         9.8149460503       -2.9134674664      -12.9926252867
 C         9.6349736044       -1.3253860282      -13.2954432661
 O         9.2141893860       -0.9426679533      -14.3446371396
 C        10.1191370180       -0.2588387829      -12.1806392701
 C         8.7944602803        0.3851053876      -11.7506689782
 O         8.0378167936       -0.1479040611      -10.9712937016
 C         8.5060751946        1.7527387987      -12.2022063183
 C         7.0328069839        2.1416535148      -12.2444760165
 C         6.6183822174        1.9890532898      -13.6694763667
 O         7.0734773883        1.1386730637      -14.4191302996
 C         5.5778125298        2.8773826029      -14.3039757209
 C         4.2739660587        1.9250244716      -14.7514314920
 O         3.3665647448        2.3820321915      -15.4652862187
 C         4.1137709544        0.7133766530      -13.8389664350
 C         2.8558911040       -0.0359835220      -14.3398366387
 C         3.2830787223       -0.8368810201      -15.7415466936
 O         4.3179582012       -1.3819551379      -15.9037067717
 C         2.1126592086       -0.8385415313      -16.9372256875
 C         3.0475106666       -0.9413570443      -18.1640708763
 O         3.6800981428       -1.9828563902      -18.4177292076
 C         3.2065130010        0.4075617383      -18.8615779776
 C         4.5160933924        0.3563455461      -19.6787401102
 C         5.7320921610        0.2158397820      -18.7443811293
 O         5.5077159638        0.1698257771      -17.5407768243
 C         7.2732147186       -0.0362113903      -19.3354737903
 C         7.7727768636       -1.4025977071      -18.7813130884
 O         7.8368641996       -1.6818239437      -17.6100026937
 C         7.7547888374       -2.6300133916      -19.6669488907
 C         7.3648920332        0.0126654843      -20.8816186437
 C         8.2799964744        1.0056276589      -18.7826939542
 C         1.2834967722       -2.0654680444      -16.7732789138
 C         1.1558030328        0.3652965247      -16.9778096774
 C         5.0470660959        4.1415954212      -13.4619404817
 C         6.1670340419        3.5720442311      -15.6026196365
 C        10.7161326921       -0.8655424081      -10.9125598578
 C        11.1930358877        0.7087978445      -12.8487957029
 C         7.6456690032       -5.1946412529      -12.0199283501
 C         7.0126636801       -6.1039173986      -14.4530825989
 C         0.6227986134       -6.4990392834      -12.4506332152
 C        -0.3463966155       -6.0934145923      -14.7999595494
 C        -2.9827463683        0.0647225838      -13.1491683233
 C        -3.0763871175       -0.2007174097      -10.6499386615
 C        -9.8655730302        1.5500526893      -10.8349657252
 C        -8.5913595877        3.6899080290      -10.2852990747
 C        -5.6711071655       -0.0760917641       -4.7267528382
 C        -7.2904798851       -1.4599960923       -6.3014950809
 C       -12.4196993083       -1.0850965516       -0.7197996595
 C       -12.2240936743       -3.6668412763       -0.4550150088
 C       -17.7056926312       -3.0481538098       -5.6963620273
 C       -19.0375512834       -1.3312456782       -4.5078539598
 C       -20.3309119739       -7.1069088503        0.0043706031
 C       -19.9537681453       -5.3149641211        1.7752859342
 H       -18.1358242840       -7.8277505379        1.8427170739
 H       -16.5979100002       -7.8070880003        1.1047257901
 H       -17.9440863049       -8.4948153065        0.2247277266
 H       -21.4588786578       -4.8939876093       -1.8672259204
 H       -20.0600025908       -5.7130093317       -2.4307908177
 H       -20.2207411894       -2.6412612003       -2.2336508321
 H       -20.7659715067       -3.3526095046       -3.6393081961
 H       -15.2175691539       -1.2646607752       -5.0904106870
 H       -15.0545435223       -2.9617980786       -4.4921805628
 H       -14.8141857262       -0.6807009331       -2.4933052319
 H       -13.4806170214       -0.9551207512       -3.5811931733
 H        -9.4822759658       -2.8274038560       -2.2174934262
 H       -10.1750342033       -1.1559694081       -1.8678825858
 H       -10.0501304919       -0.6854752928       -4.3327061232
 H        -9.5275655093       -2.2980626479       -4.7213825026
 H        -6.1609854970        1.5056759916       -7.0157666622
 H        -6.5535055194        2.6793083357       -5.8410886283
 H        -7.2802732682        3.5223657436       -8.1590348377
 H        -8.7094037106        3.2723053204       -7.1777815128
 H        -7.3959369304        0.0237211295      -12.2008884715
 H        -8.0534690215       -0.3721520015      -10.5596088090
 H        -6.0563119362       -1.5344909576      -10.4921622376
 H        -5.4132517152       -0.1081565561       -9.9574734230
 H        -2.1653605838       -2.2793662775      -13.8759346171
 H        -3.4575697684       -3.3834728725      -13.5227824555
 H        -1.9316846719       -5.3091497610      -12.8558451800
 H        -1.4936753402       -4.1746612268      -11.6151745916
 H         2.9314061819       -4.1521222731      -12.6967477499
 H         2.4701655720       -3.1279725349      -14.0004655829
 H         4.6909238203       -3.5829005431      -14.8514380252
 H         4.4310708271       -5.2974805697      -14.6638762291
 H         9.6267831376       -3.1560202523      -15.0201056363
 H         9.5926643619       -4.7246094460      -14.2951290640
 H        10.9366003353       -3.0603787521      -13.0018099407
 H         9.5224987603       -3.2345812202      -11.9313122995
 H         9.0054891072        1.9210984893      -13.1744081232
 H         9.1301391121        2.4885138486      -11.6106563493
 H         6.8943893529        3.1484713456      -11.7837730703
 H         6.5740865950        1.5238007081      -11.5344229065
 H         3.8947750989        1.2260389466      -12.8861189398
 H         5.0205106284        0.2238883016      -13.6772538870
 H         2.0486216960        0.5845255782      -14.6770188751
 H         2.4199190198       -0.7732635499      -13.6603385807
 H         3.1712293363        1.1495285848      -17.9892430536
 H         2.4802621539        0.7504119419      -19.5780563831
 H         4.6230716644        1.2309228189      -20.3457647995
 H         4.6118312131       -0.5074133662      -20.3640652884
 H         7.5677319215       -3.5091207427      -19.0463886648
 H         8.6257057082       -2.7870092015      -20.2804640307
 H         7.0141091007       -2.5526497768      -20.3920599781
 H         8.4060944507       -0.0656446885      -21.2614417502
 H         6.9100318648        0.9379811141      -21.2603893388
 H         6.7293382951       -0.7499636815      -21.2599145094
 H         9.2567579270        0.7321965921      -19.1664452866
 H         8.2645618342        1.0273118134      -17.7141764084
 H         8.0505885878        2.0014712154      -19.0661194443
 H         1.9459560052       -2.9385117078      -16.9285700406
 H         0.4954840534       -2.0765812601      -17.4955546976
 H         0.8871926613       -2.0244022097      -15.7439798516
 H         1.7113834657        1.2970051984      -16.6818797516
 H         0.3172101409        0.3012844489      -16.2221921222
 H         0.8192678645        0.5940523379      -17.9665348669
 H         4.6052761820        3.7844561961      -12.5072719593
 H         4.1970391454        4.6239589027      -13.8859742724
 H         5.8664449606        4.8537796032      -13.3149761080
 H         6.7122410227        4.4688701779      -15.4082366498
 H         5.4231511788        3.8504832125      -16.4403737683
 H         6.8688973411        2.8782796970      -16.0862837848
 H        11.1277835943        0.0447241552      -10.3402689911
 H        11.4410687260       -1.7071708055      -10.9531936848
 H         9.8729311536       -1.1404293726      -10.2933177306
 H        10.8132036866        0.7816329500      -13.9425729373
 H        12.1329865305        0.1961365267      -12.8214449664
 H        11.2792052642        1.5747402849      -12.2700142374
 H         7.3684800563       -6.0240465054      -11.4209064403
 H         7.3352593770       -4.3971534212      -11.3918266350
 H         8.7457272903       -5.2386359589      -12.1395234643
 H         6.3686344349       -6.8685583728      -13.9210271139
 H         8.0936282134       -6.3795446527      -14.4288181018
 H         6.6405470056       -5.8215463861      -15.4660365042
 H         1.0811280367       -5.9811134562      -11.5994475026
 H         1.2369062569       -7.4126634440      -12.7548180003
 H        -0.3777530545       -6.8903778090      -12.2048580624
 H        -0.3587260054       -7.1837490705      -14.7244128642
 H        -0.0179905014       -5.7944652728      -15.8389312484
 H        -1.3684018580       -5.6730099010      -14.6864120003
 H        -1.9243007241       -0.1892108874      -13.2609798415
 H        -3.0614325021        1.0904520008      -12.9234245777
 H        -3.6090027733       -0.2028640186      -13.9485927232
 H        -3.3930151405       -0.8393282844       -9.7973080247
 H        -3.4409713170        0.7462161472      -10.3927672450
 H        -1.9732542073       -0.1715924231      -10.4648696233
 H        -9.8835178401        0.5357383324      -10.4644655328
 H        -9.7797595095        1.5469824299      -11.9047743445
 H       -10.8798808832        1.9667327993      -10.5209925382
 H        -9.5838905136        4.0280931748      -10.0216470638
 H        -8.2201526459        4.0201750289      -11.2380081878
 H        -7.8981198870        4.1738591486       -9.5695471037
 H        -5.0127233827       -0.9213419200       -4.3676308885
 H        -5.7334832849        0.6666482100       -3.9234244949
 H        -5.1307782125        0.2502736413       -5.6226821216
 H        -6.9306987301       -2.4192285570       -5.8798351527
 H        -6.8401674183       -1.3668391901       -7.2538914846
 H        -8.3339443185       -1.4620574304       -6.6012356435
 H       -13.2766119652       -0.8449121115       -0.1454623256
 H       -12.2480164609       -0.3328026856       -1.4636064034
 H       -11.5719569248       -1.1092301101        0.0641255695
 H       -11.1343806685       -3.8108751458       -0.1915585040
 H       -12.5685775094       -4.6449536816       -0.8356233339
 H       -12.6207080715       -3.3265787943        0.5476039671
 H       -18.4232362457       -3.7470737898       -6.0591129794
 H       -16.8063881628       -3.7608807315       -5.4826838560
 H       -17.3180182990       -2.3330369133       -6.4174075670
 H       -19.1109483548       -0.7116096417       -3.7288503136
 H       -20.0633011093       -1.6552423853       -4.6505776573
 H       -18.6956636246       -0.6918321585       -5.3348735146
 H       -20.1025821002       -7.3988244657       -0.9957221720
 H       -21.4509821831       -7.0142814168        0.1540977907
 H       -20.0181341819       -7.9618406784        0.5648482515
 H       -19.6118439388       -5.8590939271        2.6516759475
 H       -21.0456245882       -5.1740906947        1.8864581457
 H       -19.4861557199       -4.3797276069        1.9441020253
 Na      -16.8969201564       -3.3400136983       -0.7991743393
 Na        7.0132963823       -0.6517379098      -15.8135699523
