232

 C       -17.5294411572       -7.6365936217        0.9076526712
 C       -17.9727550448       -6.2198977082        0.6951645123
 O       -17.1521749929       -5.3002059802        0.6678533445
 C       -19.5076127859       -5.8574160737        0.3701412427
 C       -19.6162053503       -4.6638615117       -0.5748077108
 O       -19.0171295520       -3.6375697993       -0.3021406824
 C       -20.3560939956       -4.7901189874       -1.8838261999
 C       -20.0913136654       -3.6128768181       -2.8390449919
 C       -18.5498133818       -3.5034399076       -3.2874177646
 O       -17.8133504130       -4.3902247514       -2.8964894338
 C       -18.0268212855       -2.3651464331       -4.2276442448
 C       -16.7618197544       -1.7384354967       -3.4789946896
 O       -16.8541546110       -1.1344366302       -2.4458370008
 C       -15.3586582451       -2.0820640348       -3.9893996614
 C       -14.2541557856       -1.4539257756       -3.0670681695
 C       -13.9812925457       -2.4416685137       -1.9607914677
 O       -14.7897155517       -3.2127950570       -1.5495543005
 C       -12.4253654030       -2.5117919448       -1.4626393680
 C       -11.4823016136       -2.6321518979       -2.7932008889
 O       -11.9022830606       -3.1861367789       -3.7834604575
 C       -10.0483251688       -1.9418273449       -2.6657814085
 C        -9.3843401143       -1.4386082832       -3.8836826719
 C        -7.9394490824       -0.7869249814       -3.7903361688
 O        -7.3403611351       -0.5584374156       -2.7538718021
 C        -7.2423069951       -0.3434489293       -5.1973629597
 C        -7.8022984992        1.0606984702       -5.7290652075
 O        -8.8640110547        1.3436369791       -5.3104835058
 C        -6.8906419508        1.9741309843       -6.6727052149
 C        -7.8288684358        2.5767327900       -7.6825053658
 C        -8.5315237651        1.7154490919       -8.6991001568
 O        -9.0955866179        0.6589132692       -8.3836986997
 C        -8.5211526055        2.1536039404      -10.2192915569
 C        -7.2614959744        1.6090300648      -10.8298703835
 O        -6.2534450723        2.2660802243      -10.9346280317
 C        -7.3200624036        0.0961862413      -11.2283407044
 C        -5.9359755396       -0.5567013071      -10.8099148217
 C        -5.0718694435       -0.6989456003      -12.0291246352
 O        -5.5744893137       -0.6549033790      -13.0977362154
 C        -3.4261935888       -0.7127257902      -11.8754041998
 C        -2.9267610685       -2.2354218849      -11.8302449610
 O        -3.0658405361       -2.7977763518      -10.7417469797
 C        -2.4364978843       -2.9965357272      -13.1528967411
 C        -1.6824012390       -4.2458006515      -12.6660612931
 C        -0.2694867825       -4.1422665564      -13.3737434095
 O         0.3553994642       -3.1443242339      -13.4338060320
 C         0.4485097453       -5.4486016920      -13.7851933281
 C         1.9199949378       -5.1173925985      -14.2726995898
 O         2.3399154073       -5.8387494572      -15.1599942552
 C         2.8960881976       -4.2241227071      -13.4362974957
 C         4.3624037580       -4.3927704642      -14.0180678388
 C         5.4441120387       -4.3587859047      -12.9728300891
 O         5.2433313897       -3.8930831769      -11.8628889814
 C         6.9865095758       -4.8236321725      -13.3800796185
 C         7.6502920489       -3.5971319047      -14.0019126073
 O         7.0157182701       -2.6003279553      -14.2371828239
 C         9.2056805315       -3.6658321290      -14.2360312392
 C         9.8395860761       -2.8461929138      -13.1083630681
 C         9.5971665366       -1.3792782222      -13.2144712612
 O         9.0639307898       -0.8204940887      -14.1298589918
 C        10.0950910819       -0.3832663456      -12.0424635873
 C         8.7979422412        0.4000572131      -11.6148564157
 O         8.0447029433       -0.0964674048      -10.8611926376
 C         8.5300964966        1.8119530283      -12.3075301350
 C         6.9843138433        2.0705274555      -12.2981969150
 C         6.4841657425        2.0067566948      -13.7547269003
 O         6.9758518294        1.0869590668      -14.4275006236
 C         5.5415216671        2.9406530158      -14.3913679840
 C         4.2342992135        2.0001591295      -14.6061307803
 O         3.5086923957        2.3329962880      -15.5207039407
 C         4.0422218777        0.7352425210      -13.8259673692
 C         2.8235538787       -0.0851264772      -14.4640042241
 C         3.1478122298       -0.8208240768      -15.6972087607
 O         4.2092192435       -1.4528041625      -15.7464194642
 C         2.0923059077       -0.8423492674      -16.8832182934
 C         2.9960728410       -0.8508225125      -18.1807092854
 O         3.5510851116       -1.8362351518      -18.5055578707
 C         3.4553777380        0.5197173424      -18.8406234031
 C         4.6828458604        0.3624536054      -19.7347333829
 C         5.9033291341        0.1254062445      -18.7833863708
 O         5.7282069172        0.1997737187      -17.5537720094
 C         7.2650035818       -0.1531103526      -19.3790515456
 C         7.5796642563       -1.6127680985      -18.8140130556
 O         7.9163935949       -1.6686716368      -17.5805929432
 C         7.7423317776       -2.8687853336      -19.6906479370
 C         7.3614270615        0.0406474489      -20.9834440211
 C         8.2583877433        1.0142179388      -18.9114197974
 C         1.1893568590       -2.2106365182      -16.8552742864
 C         1.1525491552        0.3874229584      -16.9290377389
 C         5.0166062682        4.0812825320      -13.4593502575
 C         6.1860781906        3.5208274851      -15.6570894818
 C        10.6603874926       -1.1147889113      -10.8618902227
 C        11.0974692498        0.4683790652      -12.8372208518
 C         7.6802552067       -5.2128417807      -12.1272314079
 C         7.1526813709       -5.9998590700      -14.4457246069
 C         0.7239933440       -6.3035196165      -12.5191738162
 C        -0.3145935544       -6.2214368892      -14.8341481778
 C        -2.8578307926        0.0497046955      -13.1736057821
 C        -3.0105881521        0.0034029348      -10.6171669830
 C        -9.8112923943        1.4880151608      -10.8300268947
 C        -8.5352890047        3.6949090958      -10.5332720399
 C        -5.7355188866       -0.1541471265       -4.7732166702
 C        -7.2974504306       -1.4646324784       -6.2864420921
 C       -12.2163079897       -1.1965545581       -0.7697942463
 C       -12.2504031401       -3.6692060016       -0.4251755855
 C       -17.6683173206       -3.0275144764       -5.5952992561
 C       -19.1377651703       -1.2810182309       -4.5205912515
 C       -20.3467237135       -7.0935928754       -0.0793779024
 C       -19.9173994244       -5.3943665892        1.8080658002
 H       -17.9339867583       -8.1979755440        1.7751995379
 H       -16.4287367517       -7.7378405065        1.0798118805
 H       -17.8654320077       -8.1918449107        0.0284850549
 H       -21.4806840439       -4.8061260465       -1.6435029361
 H       -20.2281329431       -5.7405256598       -2.4004989295
 H       -20.4375104222       -2.6394879633       -2.4540160876
 H       -20.5433916067       -3.6673197405       -3.8312142271
 H       -15.1210598136       -1.8663526443       -5.0228280374
 H       -15.2625143253       -3.1901366008       -3.7890667944
 H       -14.6310573098       -0.5209718571       -2.7532338361
 H       -13.4790856011       -1.1362088540       -3.7847342859
 H        -9.4794604403       -2.7426988562       -2.2265631600
 H       -10.2667833077       -1.0980850399       -1.9542522543
 H       -10.0578707357       -0.7953536664       -4.3600108308
 H        -9.3611156542       -2.3086045705       -4.5620406703
 H        -6.0555633984        1.4390196418       -7.1539371013
 H        -6.3909468588        2.7924819681       -6.1243846712
 H        -7.4781644249        3.4518326437       -8.2483547805
 H        -8.6381438493        3.0002483768       -7.1170917457
 H        -7.3712925247        0.0665513476      -12.2901265581
 H        -8.1601750303       -0.4232310135      -10.7197910914
 H        -6.0177802234       -1.5723304983      -10.2705036858
 H        -5.4846035568        0.0500500875      -10.0346112099
 H        -1.7397827401       -2.3322007513      -13.6335188074
 H        -3.1546632818       -3.2527534677      -13.8894788993
 H        -2.0065018440       -5.2489049340      -12.9873048160
 H        -1.5239271913       -4.3803190935      -11.5289149552
 H         2.8641760831       -4.0620053089      -12.3563678741
 H         2.6310090406       -3.1989971020      -13.7984490057
 H         4.3426292228       -3.5257486422      -14.6177188337
 H         4.2871277043       -5.2856608373      -14.5647147627
 H         9.5334780203       -3.3696648851      -15.2403223327
 H         9.5339336739       -4.6901086545      -14.2178213177
 H        10.8408789344       -3.0847750578      -12.8794669450
 H         9.3118594381       -3.0840040654      -12.1253664096
 H         9.0476268161        1.9172011675      -13.3403760937
 H         9.1173527614        2.5975350719      -11.8030460096
 H         6.7278712937        2.8390480579      -11.5988233740
 H         6.7064613794        1.2307189808      -11.7330363902
 H         3.8925287654        0.9356209845      -12.7850166880
 H         5.0305635089        0.2260405877      -13.9107897937
 H         1.8665135630        0.3372121447      -14.6427221648
 H         2.7044015423       -0.9740392326      -13.8750314792
 H         3.5426832153        1.2966148836      -18.0613488632
 H         2.7275725819        0.9074769321      -19.6361725365
 H         4.8083821086        1.2436911507      -20.3587377946
 H         4.6519389307       -0.4865539241      -20.4304902281
 H         8.1867967754       -3.6536522088      -19.1300261843
 H         8.3025851097       -2.6474611760      -20.5455483562
 H         6.7635905926       -3.2598150025      -20.1298070790
 H         8.4392165164        0.1778340309      -21.3063194406
 H         6.7818726603        0.8629305313      -21.4061727762
 H         7.0067228020       -0.8351653921      -21.3815384834
 H         9.2091642493        0.9997351262      -19.4393732922
 H         8.3503375759        1.1647472929      -17.8514064076
 H         7.7093812664        1.9053193529      -19.2503750824
 H         1.7809280772       -3.0833598477      -16.6146313427
 H         0.6625669501       -2.3052621766      -17.7416169353
 H         0.4776339050       -1.9887482735      -16.0288458970
 H         1.5444809488        1.3910521718      -16.5908853501
 H         0.2168589848        0.2066480605      -16.3865246920
 H         0.9277287667        0.5783146404      -18.0327034694
 H         5.2612917131        3.7225717727      -12.4529117066
 H         3.9124780250        4.2363419691      -13.3637720098
 H         5.4034315117        5.0752084883      -13.6857210793
 H         6.6996851941        4.5069682413      -15.5159658963
 H         5.5036744660        3.6837215564      -16.5256333270
 H         6.9109307835        2.7369452275      -16.0678101014
 H        11.0930565255       -0.4242003004      -10.1364957499
 H        11.4628487514       -1.9058798751      -11.1458013566
 H         9.8049408192       -1.6071742434      -10.3668022271
 H        10.6362552699        0.6028118740      -13.8093775644
 H        12.1223196533        0.0240073391      -12.9191847814
 H        11.1590209337        1.3686113444      -12.1971683199
 H         7.1399595107       -6.0726612833      -11.7282115434
 H         7.4568942007       -4.4774672346      -11.3278423645
 H         8.7258971124       -5.5368187405      -12.1615093514
 H         6.5349714916       -6.8898977056      -14.1532898351
 H         8.1999084268       -6.1695702204      -14.3726977995
 H         6.9079447995       -5.5937452218      -15.4237293834
 H         1.2332293397       -5.5632241685      -11.8553114473
 H         1.4576631055       -7.0992594106      -12.7435005460
 H        -0.1836872330       -6.7706105212      -12.0578466526
 H        -0.1016469762       -7.3523020614      -15.0159772786
 H        -0.0500069689       -5.6495162465      -15.7774499253
 H        -1.4086371021       -6.0104063832      -14.6705232752
 H        -1.8625155295       -0.1853540730      -13.2634412225
 H        -2.9078274494        1.1435548578      -12.9779438150
 H        -3.4902078233       -0.2364292817      -13.9903047637
 H        -3.4733390431       -0.3889427219       -9.6925455266
 H        -3.4407321910        0.9945121956      -10.6467271233
 H        -1.9719629482        0.0848798852      -10.2850865206
 H       -10.0250974651        0.5966118261      -10.2463890588
 H        -9.6467828820        1.2090507224      -11.9303115655
 H       -10.7440866513        2.1209610373      -10.7849083360
 H        -9.4363710873        4.2052690175      -10.1590436476
 H        -8.2908907351        3.8276723231      -11.6003377358
 H        -7.6842772492        4.1581468205      -10.0841562386
 H        -5.2558189900       -0.9907981843       -4.3854149461
 H        -5.7298948836        0.6295440739       -3.9787857371
 H        -5.1156788276        0.1279423119       -5.6755639505
 H        -7.1023554549       -2.3973561573       -5.8208708682
 H        -6.4918407527       -1.4509203376       -7.0270110696
 H        -8.2059628724       -1.4081845984       -6.9844442685
 H       -12.9213096090       -1.0436270189        0.1061569182
 H       -12.2277901251       -0.3326118517       -1.4762428516
 H       -11.2783198199       -1.2580463009       -0.2569898397
 H       -11.2979516476       -3.7983828948        0.0565864390
 H       -12.5040482748       -4.6773316042       -0.9212857516
 H       -12.9213545609       -3.3724187919        0.3919247166
 H       -18.5138456049       -3.6276817690       -5.9234281529
 H       -16.9064472651       -3.8159927342       -5.4715219644
 H       -17.2459228771       -2.3319697566       -6.3920190215
 H       -19.3145233829       -0.5665076684       -3.6929298426
 H       -20.1481906772       -1.6738444923       -4.6571933704
 H       -18.8624692777       -0.6892858555       -5.3489357277
 H       -19.9818640076       -7.3225426015       -1.0698582167
 H       -21.4279221879       -7.0580014141       -0.0321749192
 H       -20.0838591064       -7.9096146721        0.4797077335
 H       -19.5892427557       -5.9938549818        2.6164292000
 H       -20.9670393477       -5.3089188240        1.9454013579
 H       -19.4795215728       -4.4028961432        2.0468890939
 Na      -16.9043559932       -3.3915376250       -1.0274373824
 Na        6.9418142862       -0.7054839951      -15.8256375036
