232

 C       -17.4636950119       -7.5745949845        0.9388791263
 C       -17.8807272481       -6.1578917825        0.6419410197
 O       -17.1074490434       -5.2138830742        0.8594263328
 C       -19.4179761640       -5.8643602986        0.4474362717
 C       -19.5266852527       -4.6529842195       -0.5742954873
 O       -18.9991378862       -3.6280530746       -0.1809632239
 C       -20.3114814846       -4.7149287846       -1.9452280088
 C       -20.0413023999       -3.6371260462       -2.9479931563
 C       -18.5940660090       -3.5103765981       -3.3734773755
 O       -17.7869743806       -4.4008648896       -3.0410780746
 C       -18.0744337441       -2.3161774776       -4.1248770859
 C       -16.7625649071       -1.7615595996       -3.3650057127
 O       -16.9495272850       -1.1889469167       -2.2834741835
 C       -15.4115496804       -2.1566458856       -3.8887072154
 C       -14.2688244464       -1.5211827961       -3.1134471809
 C       -13.8659324932       -2.4192874356       -2.0259916700
 O       -14.6511994489       -3.2372593540       -1.4987167200
 C       -12.4161694769       -2.4796036214       -1.5089738407
 C       -11.4008024780       -2.6042425048       -2.7241643354
 O       -11.7362453046       -3.2069035486       -3.7516433768
 C        -9.9752420454       -1.9457846163       -2.6661213950
 C        -9.3678752944       -1.4345784057       -4.0050355752
 C        -8.0263926404       -0.6732116200       -3.8443201732
 O        -7.5908695928       -0.3977557929       -2.7404728270
 C        -7.2378715994       -0.2953892401       -5.0954864951
 C        -7.8451194811        0.9870073608       -5.7001009673
 O        -8.9607949558        1.4680868573       -5.4508195123
 C        -7.0533030069        1.7118392760       -6.7156374501
 C        -7.8590156346        2.6471847635       -7.6443605572
 C        -8.5409476727        1.7539303900       -8.7197474962
 O        -9.0148393271        0.7023597119       -8.4099832209
 C        -8.5744902513        2.1299871078      -10.2959266965
 C        -7.2205960658        1.5690437442      -10.8822416448
 O        -6.2710600208        2.2185215878      -11.1546987761
 C        -7.2211808528        0.0371299725      -11.1774132427
 C        -5.9010808617       -0.6479172100      -10.7688211293
 C        -4.9026540932       -0.5892764062      -12.0363233372
 O        -5.4022422506       -0.6505298655      -13.1690323982
 C        -3.4577096650       -0.6272532856      -11.8518056007
 C        -2.9776956575       -2.1687374616      -11.7546860751
 O        -3.1984997714       -2.7486297634      -10.7411486866
 C        -2.4343192466       -2.8519776183      -12.9613551099
 C        -1.6795465054       -4.1501656830      -12.7527025214
 C        -0.2229576175       -4.1797451429      -13.3370616270
 O         0.2962516126       -3.0905373278      -13.4354459137
 C         0.4722382908       -5.4522596331      -13.7665823759
 C         1.8743414145       -5.1459871784      -14.2153976800
 O         2.3442413467       -5.7574832093      -15.1649478336
 C         2.8942987520       -4.3391879505      -13.3787895788
 C         4.3230911136       -4.4203768177      -14.0190288973
 C         5.4326324580       -4.3065481688      -13.0215573457
 O         5.3136390844       -3.8922970568      -11.8749420835
 C         6.9557966239       -4.7144260002      -13.3068889632
 C         7.5833685273       -3.4452310596      -13.9608170445
 O         6.9367407305       -2.4569104931      -14.2292276271
 C         9.0694114008       -3.5584487117      -14.2877136141
 C         9.8387379610       -2.8159422517      -13.1458535318
 C         9.4571133114       -1.3577864441      -13.1558127670
 O         8.8928591485       -0.8040877317      -14.1106769780
 C        10.0722839956       -0.4573382752      -11.9876231177
 C         8.8673921763        0.4199434617      -11.5584126290
 O         8.0150525179       -0.0014992138      -10.7242344736
 C         8.5624656590        1.7075118091      -12.1932249489
 C         7.0408427210        2.0196361858      -12.3116518024
 C         6.5661649674        1.9623079200      -13.7758813356
 O         6.9384968079        1.0412314418      -14.4762650983
 C         5.4893090663        2.9600421803      -14.3171875569
 C         4.2026937405        2.0610359842      -14.7850929504
 O         3.5093175740        2.3396110549      -15.6879048904
 C         3.9239469833        0.6873709512      -13.9153540748
 C         2.6529028006       -0.0573906445      -14.2551783639
 C         3.0238096183       -0.8741526626      -15.5953257189
 O         4.0788736435       -1.5034502099      -15.7571271930
 C         2.1159802738       -0.7836186606      -16.9410732799
 C         3.0888963100       -0.7837114052      -18.1681422414
 O         3.4378221256       -1.8051174165      -18.7284248199
 C         3.4966560213        0.5736341628      -18.8176289025
 C         4.7107641774        0.3853145640      -19.7066752208
 C         5.9993465356        0.0806885949      -18.8062229043
 O         5.9783996780        0.2805717339      -17.6478482331
 C         7.3482439404       -0.2737354109      -19.4969800815
 C         7.8034024518       -1.6295543795      -18.8965631797
 O         7.9649919295       -1.7377300276      -17.6838496892
 C         7.7040608937       -2.8800222932      -19.7346250809
 C         7.2761646818       -0.1842112747      -21.0116035041
 C         8.2313741273        0.8709511806      -18.8977884389
 C         1.3340303289       -2.1618575079      -16.9306274203
 C         1.1590735096        0.3842538112      -16.8454581963
 C         4.9268876683        4.1270794120      -13.3661873969
 C         6.0232539892        3.4166464750      -15.7021167805
 C        10.6883516445       -1.3664796429      -10.7807283589
 C        11.2354443723        0.4244753833      -12.7014002274
 C         7.6967599807       -5.3167044606      -12.0542405866
 C         7.0476580524       -5.8857486153      -14.4037091863
 C         0.6920868967       -6.2691436115      -12.4396466218
 C        -0.2670343145       -6.3574794912      -14.9000791241
 C        -2.7454469041       -0.0286186193      -13.1499116654
 C        -2.9079094750        0.1603941089      -10.6293965956
 C        -9.8564373541        1.5286389886      -10.9752701791
 C        -8.5956742888        3.6698661431      -10.6646371140
 C        -5.6677523471       -0.2208975870       -4.8409450746
 C        -7.3583914624       -1.3847728148       -6.1953231659
 C       -12.0329388389       -1.1649013957       -0.7030415191
 C       -12.2993477324       -3.6812016168       -0.5850153987
 C       -17.6566951483       -3.0159035588       -5.4332080702
 C       -19.1210806154       -1.2324973658       -4.4535317142
 C       -20.3086395809       -7.0646346618       -0.0671687117
 C       -20.0153417440       -5.4782826294        1.8728247008
 H       -17.9957853367       -8.0629988192        1.7136885927
 H       -16.4300572843       -7.6309314853        1.3195684116
 H       -17.6358069826       -8.2098518946        0.0236400959
 H       -21.3821047198       -4.7256659220       -1.6278375944
 H       -20.2523658881       -5.7057921033       -2.4827925221
 H       -20.3486663780       -2.6255294039       -2.6651424968
 H       -20.4525851112       -3.7645287529       -4.0252486665
 H       -15.3240362703       -1.8359227036       -4.9008500175
 H       -15.3194332415       -3.2634726111       -3.8128189361
 H       -14.6514709185       -0.5759667540       -2.8448282210
 H       -13.5987342242       -1.2135147285       -3.9060830120
 H        -9.3465310890       -2.7404817300       -2.2423881824
 H       -10.1076830304       -1.0967039228       -2.0329629936
 H       -10.1177339803       -0.7937417447       -4.5185550603
 H        -9.2660093781       -2.2295580085       -4.6867091967
 H        -6.3529316029        1.1434997175       -7.3413629617
 H        -6.3799274008        2.3660671921       -6.1391492919
 H        -7.1920737310        3.2417702365       -8.2142776589
 H        -8.5030177108        3.3370919057       -7.1977209840
 H        -7.3445818242       -0.1230527600      -12.2641527983
 H        -8.0237110292       -0.4300716415      -10.5779231123
 H        -6.0932120219       -1.7042728982      -10.3924559223
 H        -5.5096702461       -0.1229023470       -9.8560298215
 H        -1.7879665317       -2.1493106038      -13.4614396035
 H        -3.1794730190       -3.1108901908      -13.6848376837
 H        -2.2079597325       -4.9702254092      -13.2199612364
 H        -1.4418761966       -4.5567663890      -11.7464199969
 H         3.0680007471       -4.8621520328      -12.4050700692
 H         2.6467108087       -3.3683016534      -12.9738991357
 H         4.3233238285       -3.6233832020      -14.8203405279
 H         4.2202871660       -5.4701184874      -14.3237887902
 H         9.2619138157       -3.1175111959      -15.2626393580
 H         9.4218015991       -4.5325195981      -14.4600507820
 H        10.9026289773       -2.8207970503      -13.3417183566
 H         9.7611951003       -3.2257434204      -12.1998413140
 H         9.0463387027        1.8054567587      -13.1728876225
 H         9.0942882148        2.5084881494      -11.6968421567
 H         6.9379020578        2.9849968942      -11.9078275398
 H         6.4645180323        1.4063662532      -11.5679777567
 H         3.8568174109        1.0194590443      -12.8672054925
 H         4.8708572375        0.0510514097      -13.9705841531
 H         1.7482022050        0.5052291134      -14.5913616897
 H         2.4713860937       -0.8332112378      -13.5251016967
 H         3.6193342861        1.3857743120      -18.1158132274
 H         2.6179442941        0.8022253334      -19.5126792083
 H         4.9157801669        1.2717377897      -20.3077532514
 H         4.6390549882       -0.4399932557      -20.3928154820
 H         8.4518138862       -3.5757938764      -19.3716320722
 H         7.7164938858       -2.8215846613      -20.8476739232
 H         6.7312867577       -3.3917908135      -19.5349970138
 H         8.2431071818       -0.1114942584      -21.4310781027
 H         6.8019136253        0.7281629676      -21.3423662867
 H         6.7186371561       -1.1381829530      -21.4125308134
 H         9.2727204020        0.9392000454      -19.2221881117
 H         8.1066297808        0.6891698637      -17.8076793980
 H         7.7385710370        1.8638108766      -19.0483201731
 H         1.9667044887       -2.9279813919      -16.5507626539
 H         0.9257391929       -2.3473395514      -17.9543737799
 H         0.5073039981       -2.0302976616      -16.2850223606
 H         1.6211272720        1.3451645109      -16.6242216184
 H         0.4406041699        0.1072859765      -16.0785112917
 H         0.5929501707        0.5994060573      -17.8046491777
 H         5.2900062799        4.1117024067      -12.3276673047
 H         3.8065416147        4.1810039900      -13.2969341387
 H         5.0965696455        5.0783081408      -13.9287183384
 H         6.6985520582        4.3446761060      -15.7185285936
 H         5.2318092980        3.6698513708      -16.3713947051
 H         6.4790700272        2.5447534553      -16.2373630309
 H        11.0555702845       -0.7422537619       -9.9864310494
 H        11.5934088968       -1.8424931543      -11.1809067084
 H         9.9734381964       -2.1243097665      -10.3595321550
 H        10.8394766819        0.8525455412      -13.5735493068
 H        12.1143580566       -0.2279475097      -12.9330491255
 H        11.5359139971        1.0628139246      -11.8135960157
 H         7.0754730991       -6.2086479010      -11.7139582762
 H         7.7865578446       -4.6993629024      -11.1267402977
 H         8.6388754623       -5.7817355373      -12.3117706763
 H         6.4860017077       -6.7112571438      -14.1736301559
 H         8.0819500486       -6.0954748806      -14.4755837729
 H         6.7403753417       -5.3847327168      -15.2843094516
 H         1.1992094369       -5.5881949613      -11.7331461793
 H         1.3615364327       -7.0905497779      -12.6100578274
 H        -0.2781220463       -6.6268122655      -12.0510187144
 H         0.4226733150       -7.1982747434      -15.1556591167
 H        -0.2836958670       -5.7290302682      -15.8003723717
 H        -1.3004371451       -6.7131842290      -14.6134247870
 H        -1.6776440197       -0.0963542200      -13.0129627867
 H        -2.9680204894        1.0341910655      -13.0526631805
 H        -3.1927392004       -0.4504866844      -14.0649518152
 H        -3.1612244033       -0.1641598128       -9.6459062789
 H        -3.3349449963        1.2153971268      -10.6244035942
 H        -1.8546964851        0.2231747257      -10.5809896914
 H       -10.2840817834        0.6378013923      -10.4102656472
 H        -9.6164264501        1.2641525123      -12.0455436760
 H       -10.6214172097        2.2656810717      -11.0685524633
 H        -9.2385330766        4.3335956611      -10.0853820550
 H        -8.6760914129        3.7479157921      -11.7507731164
 H        -7.5737778651        4.0092057295      -10.5664852754
 H        -5.3489834198       -1.1498680864       -4.3907444203
 H        -5.4761119390        0.5344255370       -4.0982471277
 H        -5.0853010534       -0.0871841205       -5.7458176702
 H        -7.2435373426       -2.4129674649       -5.9006174400
 H        -6.4868144080       -1.3127450766       -6.9222444499
 H        -8.1677151333       -1.1400064461       -6.8640453537
 H       -12.6314941783       -1.1176815210        0.2473449271
 H       -12.1179465019       -0.2047491322       -1.2800311157
 H       -11.0439630450       -1.2591628975       -0.3437143886
 H       -11.3474851956       -3.6544877045       -0.0706325602
 H       -12.2649091006       -4.5969312528       -1.1472528733
 H       -13.0390635679       -3.6455749850        0.1838445681
 H       -18.5902526019       -3.3398676335       -5.9668354884
 H       -17.0999030913       -3.9126569095       -5.3542316960
 H       -17.1349845105       -2.2810473267       -6.0508508615
 H       -19.4707778291       -0.6740038302       -3.4895851712
 H       -20.0762180173       -1.6272129488       -4.7997047519
 H       -18.8046631382       -0.4825584758       -5.1667909474
 H       -19.8309846138       -7.4633167919       -0.9602055483
 H       -21.2423049546       -6.7070106446       -0.2943959718
 H       -20.5536911364       -7.8802624280        0.6770104164
 H       -19.8878766841       -6.2066593046        2.6700106794
 H       -21.0760578835       -5.3383730723        1.8505198446
 H       -19.5924403958       -4.5529953803        2.2776420451
 Na      -16.9158183844       -3.4538023125       -1.1597266785
 Na        6.8658184011       -0.8195648032      -15.7097598614
