232

 C       -17.4231314185       -7.5259741700        0.9634253476
 C       -17.8644146263       -6.0632441331        0.7787765400
 O       -17.1014185755       -5.1679570965        0.8050920583
 C       -19.4494232848       -5.7986655087        0.4286664231
 C       -19.5425866429       -4.5748989581       -0.4876233726
 O       -19.0047169447       -3.5155264656       -0.2142579386
 C       -20.2736281056       -4.7501903182       -1.8007917464
 C       -20.1101194940       -3.7063919042       -2.8418335841
 C       -18.5816546433       -3.5659259918       -3.2973643938
 O       -17.7992835334       -4.4788562606       -3.1232666599
 C       -18.0913478578       -2.2929076310       -4.1563049756
 C       -16.8806810326       -1.8210626615       -3.2950629005
 O       -17.0545493357       -1.2785162291       -2.2104970510
 C       -15.5425718274       -2.0879441814       -3.9430344611
 C       -14.2426800790       -1.5584937063       -3.1144628742
 C       -13.7418213313       -2.4537631642       -2.0260893289
 O       -14.5367219846       -3.2091383854       -1.4254088754
 C       -12.2071462213       -2.4589652644       -1.5016913030
 C       -11.2638745057       -2.5012800703       -2.7623560333
 O       -11.5891919666       -3.2069359009       -3.6672011209
 C        -9.8458672953       -1.9041175096       -2.6714956949
 C        -9.4052149394       -1.4725453872       -4.0951345779
 C        -8.0925037993       -0.6959256645       -3.8112813250
 O        -7.8873258548       -0.2577799608       -2.7052373701
 C        -7.2517320517       -0.3000234130       -5.1166366043
 C        -7.9040598691        1.0777596020       -5.7249719520
 O        -9.0565039024        1.3774612598       -5.4040777306
 C        -6.9949314072        1.6580643270       -6.8870209490
 C        -7.7458451847        2.7011494508       -7.8305720792
 C        -8.5805386921        1.8169671396       -8.8983771970
 O        -8.9431790145        0.7444015342       -8.4799296116
 C        -8.6070238377        2.1485249902      -10.4134772850
 C        -7.2886933313        1.4347743922      -10.9523272352
 O        -6.3361422240        2.1772613810      -11.2742888246
 C        -7.1963972559       -0.0925163554      -11.0478712470
 C        -5.8345822329       -0.6891864401      -10.8793282915
 C        -4.8293390710       -0.5501463257      -12.0916879817
 O        -5.3152502133       -0.6493526527      -13.2177427194
 C        -3.2539503822       -0.5554489986      -11.8364669010
 C        -2.9964155913       -2.1059159802      -11.6053767332
 O        -3.3164350113       -2.7283887295      -10.6339628770
 C        -2.4414247298       -2.7528987013      -12.9256923408
 C        -1.8524438049       -4.1293271450      -12.8155912848
 C        -0.2824946075       -4.0938892856      -13.3261597095
 O         0.2672864394       -2.9881821497      -13.4990566730
 C         0.5652445749       -5.4360549533      -13.6381079307
 C         2.0585142438       -5.3413818618      -14.2217456746
 O         2.3708094348       -5.6710471355      -15.3560474049
 C         3.0064909131       -4.5714041892      -13.3573148248
 C         4.4501934374       -4.4654655393      -13.9156991696
 C         5.4397081051       -4.3144377769      -12.8734739060
 O         5.2055845680       -3.8355262442      -11.8060001926
 C         6.9020411779       -4.7184374778      -13.3737020270
 C         7.5743465143       -3.4577638690      -13.9399790180
 O         6.7247359590       -2.5796365683      -14.1454331451
 C         8.9924957389       -3.3830320504      -14.3845438592
 C         9.8910599692       -2.7962157306      -13.2757204430
 C         9.5788474300       -1.2874620831      -13.1553225452
 O         8.8507087474       -0.7553984198      -13.9756479484
 C        10.0879758379       -0.4687709885      -11.9620873561
 C         8.8198833341        0.3701498957      -11.4269525376
 O         8.1055524039       -0.0570406300      -10.5204473271
 C         8.6423508451        1.7475183766      -12.1806071320
 C         7.1614705808        2.1312257894      -12.3304804766
 C         6.5011233862        1.9717902058      -13.7090739302
 O         6.9297901975        1.1330721888      -14.4712213238
 C         5.3069286381        2.7931985565      -14.3635780293
 C         4.1235468144        1.9850817426      -14.7970913982
 O         3.4881728646        2.2973959387      -15.8094236991
 C         3.8114801856        0.7417080483      -13.9334827878
 C         2.6703614474       -0.0356970511      -14.3112245762
 C         3.0407459353       -0.8320776559      -15.6820051915
 O         4.0263122621       -1.5106709336      -15.5637068763
 C         2.0857220257       -0.7761891667      -16.8913370200
 C         3.0486548496       -0.7310379588      -18.2473956735
 O         3.3188864018       -1.7884425761      -18.8355570487
 C         3.4838997851        0.6294538319      -18.7765330520
 C         4.7273739063        0.4120233403      -19.6264456473
 C         6.0011729712        0.1278201195      -18.8334043010
 O         5.9692786218        0.3150125545      -17.6238814834
 C         7.3705341138       -0.2762728711      -19.5414241606
 C         7.8012567793       -1.7194986513      -18.9085773700
 O         8.1181757825       -1.8102533621      -17.7773830068
 C         7.7062169163       -2.9605574003      -19.7907814402
 C         7.2636703743       -0.3922414060      -21.0892985651
 C         8.4231451024        0.7624779774      -18.9540100770
 C         1.4408821940       -2.1388316411      -17.0191607513
 C         1.1450842675        0.3970212494      -16.8593800368
 C         4.9358783198        3.9856433175      -13.4921492816
 C         5.8771151310        3.4439123796      -15.6903638389
 C        10.5884867135       -1.4062902875      -10.8707958751
 C        11.3128087143        0.3208991378      -12.3832784859
 C         7.5769152481       -5.2549652607      -12.0999053269
 C         6.8372635297       -5.8039124602      -14.4967833097
 C         0.5039193931       -6.3653841254      -12.3283106530
 C        -0.2014339197       -6.3157928061      -14.7051731419
 C        -2.6298488516        0.0513651762      -13.1480768399
 C        -2.7956132863        0.2414651429      -10.6369799034
 C        -9.8062435163        1.5429845109      -11.0633065909
 C        -8.5956188484        3.6866456112      -10.6226427127
 C        -5.7703040332       -0.1738476084       -4.7785664496
 C        -7.5023407976       -1.3985178428       -6.2218301143
 C       -12.0148954724       -1.1197681092       -0.5939167033
 C       -12.1013855849       -3.7365295969       -0.7064517121
 C       -17.6304312025       -2.9221280992       -5.5680598050
 C       -19.0275159784       -1.1433739513       -4.3035154724
 C       -20.1625880439       -7.1119121713       -0.0685761004
 C       -20.0566974973       -5.4853535223        1.7386330386
 H       -17.9990932208       -8.1551141031        1.6439853925
 H       -16.4675416203       -7.5660939023        1.4310382621
 H       -17.4876996467       -8.0243600924       -0.0004071017
 H       -21.2801206374       -5.0300283999       -1.5728127129
 H       -19.9286440763       -5.6993387381       -2.3009382863
 H       -20.3708077930       -2.6856068505       -2.4953551765
 H       -20.5583904626       -3.8397296244       -3.8557386426
 H       -15.5716054596       -1.5706647587       -4.9333819814
 H       -15.4084044622       -3.1285526615       -4.0729411704
 H       -14.5732431757       -0.5343971051       -2.7736709831
 H       -13.5879651051       -1.2608940229       -3.9002448845
 H        -9.2161002394       -2.7596390916       -2.3690105739
 H        -9.8317043713       -1.0920171768       -1.9969634356
 H       -10.1117727359       -0.7619941636       -4.6367754752
 H        -9.3456787653       -2.2926710298       -4.8052361345
 H        -6.6591029637        0.8200271484       -7.4903731220
 H        -6.0620049257        2.0555312031       -6.4885093494
 H        -7.2479906028        3.5435883830       -8.2419634779
 H        -8.5582663829        3.1491495948       -7.2346978236
 H        -7.5571319712       -0.4162516387      -12.0846710828
 H        -7.8148666031       -0.5025889439      -10.2603148554
 H        -6.0118407635       -1.7380478534      -10.7395074266
 H        -5.3689628419       -0.3350455516       -9.9134507762
 H        -1.6473997990       -2.0804321570      -13.3015825768
 H        -3.2167423757       -2.7769749469      -13.7307576382
 H        -2.4205612635       -4.9788623047      -13.1915721547
 H        -1.5898327766       -4.3958524873      -11.8373465322
 H         3.0730339855       -5.0238749829      -12.3515471548
 H         2.6616963167       -3.5968688203      -12.9932082241
 H         4.4300476946       -3.4308540659      -14.3850209341
 H         4.4295108544       -5.3968570524      -14.5816196572
 H         9.0652330664       -2.8888194574      -15.3323231763
 H         9.4113066288       -4.3587814001      -14.6603603590
 H        10.9292584644       -2.9595940585      -13.6413561062
 H         9.8420166065       -3.3343018943      -12.3744472548
 H         9.0576418912        1.7179726014      -13.1246177658
 H         9.2519769990        2.5279393343      -11.7455299050
 H         7.0407837935        3.1645151769      -11.9202986973
 H         6.5175228628        1.5372994756      -11.5888459306
 H         3.6349792986        1.1693940112      -12.8824021909
 H         4.7693612620        0.2284235914      -13.8983619077
 H         1.7749753495        0.5657655277      -14.5504650774
 H         2.5154040168       -0.9062496452      -13.6075244503
 H         3.8582416077        1.1725192043      -17.8924334363
 H         2.6275445189        1.0921380671      -19.2110827241
 H         5.1015725153        1.3020987442      -20.1659314877
 H         4.7165410830       -0.3938127089      -20.3459193640
 H         8.6537122841       -3.5928752143      -19.6838370999
 H         7.4881095011       -2.7489625683      -20.8783424646
 H         6.9303236388       -3.6021399136      -19.4817444263
 H         8.1706759006       -0.7791170917      -21.5291525302
 H         7.2496996541        0.6212810878      -21.5340789201
 H         6.3930816750       -1.0362477517      -21.3726406749
 H         9.4236749411        0.5584940668      -19.3932222462
 H         8.4228806661        0.4709820089      -17.8766205789
 H         8.2142994136        1.8400040879      -19.0200359879
 H         2.2266306287       -2.8791923181      -16.8334034620
 H         1.0674195732       -2.0917103749      -18.0723655324
 H         0.6016131264       -2.2957916497      -16.3863823941
 H         1.7153219454        1.2923686456      -16.9787588841
 H         0.4927873037        0.4030142349      -15.9685370959
 H         0.4779502514        0.4021734863      -17.6632920218
 H         5.5016644713        4.1001919019      -12.5407854878
 H         3.8760838893        4.0523782791      -13.2815182181
 H         4.9597127672        4.8579521614      -14.1593379544
 H         6.6706507089        4.0778758285      -15.4022100771
 H         5.1627416082        4.1541467509      -16.1341513031
 H         6.0716179825        2.8154359068      -16.5203618075
 H        10.9508597816       -0.7747913637      -10.0228857944
 H        11.4990274123       -1.8237454560      -11.1798976394
 H         9.8735638766       -2.1298955355      -10.5338809484
 H        11.0177202318        1.0380685433      -13.1947970808
 H        11.9004909495       -0.4485803678      -12.8429794183
 H        11.8229316480        0.6129395008      -11.5024941239
 H         7.1560453181       -6.1198024426      -11.5602595537
 H         7.6255824064       -4.4331301333      -11.3946247815
 H         8.6232684282       -5.5537743323      -12.3207988129
 H         6.2897909456       -6.6081665800      -14.0999346948
 H         7.8384815330       -6.1165346681      -14.6910241114
 H         6.4006742139       -5.3646234587      -15.3391399309
 H         0.8926317635       -5.8931078474      -11.4514439904
 H         1.1358467278       -7.2372705434      -12.4993589121
 H        -0.5191914717       -6.6400375993      -12.1825229937
 H         0.5787139469       -6.8711493765      -15.0897287062
 H        -0.5523042999       -5.7522372771      -15.5413822252
 H        -0.9292065516       -6.9911405040      -14.2992206621
 H        -1.5068144116        0.2958689703      -13.1077319108
 H        -3.1433095084        0.9847064011      -13.1396740669
 H        -3.0202861851       -0.5280698573      -13.9996633072
 H        -2.9877628938       -0.2461171396       -9.6943405198
 H        -3.2899231777        1.1848041015      -10.4836165064
 H        -1.7305017270        0.4164318200      -10.5959988958
 H       -10.0484050313        0.5942242671      -10.5419857102
 H        -9.6428447283        1.3872584063      -12.0972494509
 H       -10.6779609979        2.1964127648      -11.0454444465
 H        -9.1216832457        4.2108164120       -9.8352535697
 H        -8.9847941403        3.9104570866      -11.5923705116
 H        -7.5709185135        4.1148855914      -10.7031174909
 H        -5.4295211226       -1.1441588970       -4.2889023954
 H        -5.6748993460        0.5648652248       -4.0307378154
 H        -5.1573246927        0.0461684875       -5.6005258662
 H        -7.3032819564       -2.4636594297       -5.9613324396
 H        -6.8772398113       -1.3240707976       -7.1180774331
 H        -8.4720551561       -1.2030634202       -6.5730242585
 H       -12.7971496480       -1.1364294558        0.1021857488
 H       -12.0666838737       -0.2234645432       -1.1725329989
 H       -11.0522456826       -1.0647498925        0.0231425413
 H       -11.1440016828       -3.7780667325       -0.1966490325
 H       -12.0818852691       -4.5513330740       -1.3431316492
 H       -12.8886690972       -3.8395126759        0.0159755398
 H       -18.5085626982       -3.1457120237       -6.1565196822
 H       -17.0773056742       -3.8970421931       -5.4984201171
 H       -17.1255146914       -2.2054623516       -6.1289998591
 H       -19.4520626583       -0.9000800609       -3.3733216455
 H       -19.9199753042       -1.4222415887       -4.9178540150
 H       -18.6249159034       -0.1893014347       -4.7997862031
 H       -19.5974365663       -7.6785259219       -0.8114501114
 H       -21.1536692502       -6.7972785666       -0.4642032956
 H       -20.5258896366       -7.7274872405        0.7958312320
 H       -19.9729409488       -6.3336884972        2.4532012862
 H       -21.1241812532       -5.2090887477        1.8433196115
 H       -19.5142425333       -4.6910022859        2.1818811212
 Na      -16.8753259527       -3.5365337637       -1.1418775098
 Na        6.7949273352       -0.9259254426      -15.6792488212
