232

 C       -17.4621972556       -7.1952300181        1.8148194136
 C       -17.7465382074       -6.0518625500        0.9074829625
 O       -16.7939910938       -5.3595032862        0.4909822752
 C       -19.2782653825       -5.8343644102        0.4343350251
 C       -19.4616432303       -4.7115356779       -0.5703319251
 O       -18.9034740561       -3.6153696225       -0.3454357457
 C       -20.2924364712       -4.8710015491       -1.8631335767
 C       -20.0408028612       -3.7280243407       -2.9362282305
 C       -18.5697443193       -3.4840984128       -3.2753845970
 O       -17.8339964185       -4.4425769987       -3.0761476739
 C       -17.9247680094       -2.2742063073       -3.9384471918
 C       -16.6425744597       -1.9548115864       -3.0684728905
 O       -16.8624480094       -1.5289848661       -1.9392095594
 C       -15.2797999343       -2.0916016116       -3.6724718941
 C       -14.2180381402       -1.6285215462       -2.6521447557
 C       -13.7256892330       -2.7268745774       -1.7843666446
 O       -14.4738177425       -3.6159409336       -1.4050551756
 C       -12.1972831501       -2.5485412688       -1.2937054707
 C       -11.3435336000       -2.4064762818       -2.7391981755
 O       -11.8096758726       -2.9507974296       -3.7643641577
 C       -10.1040941653       -1.5638191640       -2.6998950460
 C        -9.2823067530       -1.5562086009       -4.0185863776
 C        -8.2746212569       -0.3796720572       -4.0361383907
 O        -8.3770167224        0.5015941512       -3.1798430332
 C        -7.3718219537       -0.1194604033       -5.3047655083
 C        -7.8858731037        1.2004529530       -6.0817051634
 O        -9.0325362939        1.4494772213       -5.8790815313
 C        -6.9688357404        1.8267935376       -7.1788010038
 C        -7.7251043365        2.6466418109       -8.2693987577
 C        -8.4217232426        1.6219380249       -9.2012419812
 O        -8.8303219119        0.5497226109       -8.7554298912
 C        -8.4737136209        1.9835538318      -10.7266755347
 C        -7.2114156095        1.2782634097      -11.3578062854
 O        -6.2699546573        1.8687235480      -11.7217716088
 C        -7.2148605078       -0.2842767229      -11.3200859213
 C        -5.7442862215       -0.7058309187      -10.9875168481
 C        -4.6942324852       -0.2779850362      -12.0869152202
 O        -5.0421367837       -0.2092660691      -13.2029741612
 C        -3.1025870498       -0.1636344793      -11.8049197103
 C        -2.7163610981       -1.7374276158      -11.7804207412
 O        -2.9463658274       -2.3420067050      -10.7252049993
 C        -2.2185867919       -2.5214242678      -13.0331511588
 C        -1.5788573060       -3.9103875650      -12.6685822188
 C        -0.2472962112       -4.1329596029      -13.3554594130
 O         0.3838243941       -3.2650972926      -13.8548328794
 C         0.1614299082       -5.5674223002      -13.3765996616
 C         1.7446465938       -5.4660607683      -13.8638893473
 O         1.8433815958       -5.3150592773      -15.0707644294
 C         2.8667384994       -5.3332423588      -12.9238222804
 C         4.1008393829       -4.5635983978      -13.6367965769
 C         5.3604426422       -4.5344849033      -12.7112330224
 O         5.1845553374       -4.4638944075      -11.4840186629
 C         6.8008371855       -4.7006735157      -13.2207498074
 C         7.1788509362       -3.4522389063      -14.1128320051
 O         6.4007095161       -2.5543640731      -14.3333166123
 C         8.7501135078       -3.4235467434      -14.6257207340
 C         9.6043687447       -2.7208080609      -13.5649396240
 C         9.4042330877       -1.2206558313      -13.2667387413
 O         9.2538300139       -0.4326340511      -14.1800951355
 C         9.6601588430       -0.5998914272      -11.9258148146
 C         8.7613727866        0.6543285514      -11.5281825814
 O         8.2159068371        0.5363245885      -10.4420518625
 C         8.6122651411        1.8014874365      -12.4024444316
 C         7.2330364543        2.4089790406      -12.3771180647
 C         6.4550531354        1.9580713120      -13.6201705833
 O         6.8582076031        1.0641010244      -14.3299989778
 C         5.3093235943        2.7126341526      -14.1775650529
 C         4.1045854622        1.7530872020      -14.7029475448
 O         3.6570446635        1.9120166158      -15.8092691180
 C         3.5760351633        0.6873229776      -13.7747198823
 C         2.6322345866       -0.1503128561      -14.5455765080
 C         3.2176723161       -0.5303010119      -15.9351257409
 O         4.4021147103       -0.6921643309      -16.0403924822
 C         2.2810704742       -0.8644265979      -17.0719260106
 C         3.1311728552       -0.7555596537      -18.3445551580
 O         3.1973230434       -1.5807025443      -19.2000408217
 C         3.7984302389        0.6582297562      -18.5048587224
 C         5.0143555758        0.5742337868      -19.5412279616
 C         6.2365213071        0.1207382051      -18.7797392898
 O         6.3743333819        0.5483498578      -17.6032616627
 C         7.4190734081       -0.7279771391      -19.5036907650
 C         7.5413492942       -2.1436785547      -18.8035092389
 O         7.5636120981       -2.2605299257      -17.5715972416
 C         7.6331271725       -3.3545085966      -19.6914968808
 C         7.2400907593       -0.8241035580      -21.0711362371
 C         8.6377520525        0.2034395106      -19.2523528569
 C         1.6796104769       -2.3389530522      -17.0643683317
 C         1.0870085765        0.1000385012      -17.1408488860
 C         4.7302890194        3.5930471471      -13.0210017551
 C         5.7481296212        3.6204133403      -15.3378288167
 C         9.4908829294       -1.6538314311      -10.8057132810
 C        11.1520742916       -0.0789603778      -11.9799824103
 C         7.7795754421       -5.0158849900      -12.0607527097
 C         6.6993331645       -5.8623224806      -14.2910649032
 C         0.0394992603       -6.2610826795      -12.0693924023
 C        -0.6202075827       -6.3674299087      -14.4902644704
 C        -2.5235341756        0.7399206424      -12.9960885233
 C        -2.7352746827        0.3225667101      -10.3908010051
 C        -9.7277940307        1.2996695722      -11.3911728799
 C        -8.4441316133        3.4922004094      -11.0572918729
 C        -5.8803275715        0.1286999808       -4.8846345367
 C        -7.5530203627       -1.2029715296       -6.4220066586
 C       -12.0587434950       -1.2769082715       -0.4449991226
 C       -11.8439285684       -3.8273730240       -0.4717188327
 C       -17.7568296129       -2.5471709045       -5.4818691389
 C       -18.7714028058       -0.9203971716       -3.7805008979
 C       -19.9025209670       -7.1610542626       -0.1247634093
 C       -19.8856087050       -5.2645886739        1.7764504732
 H       -18.0661361688       -7.1761187920        2.7413072703
 H       -16.4348666524       -7.2245419534        2.2281078857
 H       -17.7360848426       -8.1241051858        1.3634102484
 H       -21.3942225484       -4.8251585037       -1.7704173750
 H       -20.2546284192       -5.8494288367       -2.2888813931
 H       -20.5957694316       -2.7922551327       -2.6181432670
 H       -20.5217781912       -4.2433300333       -3.7555026247
 H       -15.3044182103       -1.5548383312       -4.6427620394
 H       -15.1793109674       -3.1476278144       -3.8985373190
 H       -14.7787370774       -0.7802794847       -2.2138089132
 H       -13.4637596918       -1.0839556672       -3.2518927057
 H        -9.5212143143       -1.8045414712       -1.8351119077
 H       -10.3767229971       -0.4955978293       -2.5262168509
 H        -9.8695858396       -1.2880064467       -4.9136131971
 H        -8.6584192955       -2.4747369924       -4.3425250189
 H        -6.5281156878        0.9556833261       -7.6702644090
 H        -6.1479705061        2.4207976832       -6.7733354333
 H        -7.1158167859        3.3536088173       -8.8844927605
 H        -8.5060293519        3.2572927233       -7.8106884364
 H        -7.4399203294       -0.5293154074      -12.3842456280
 H        -7.9354635966       -0.8598039617      -10.6809868896
 H        -5.6639711336       -1.7889151880      -10.9098414095
 H        -5.4972715386       -0.1800870153      -10.0803614477
 H        -1.4699673484       -1.8563072966      -13.5068914215
 H        -3.0787967648       -2.5874033225      -13.7270341730
 H        -2.3560007061       -4.6404336651      -12.7580306979
 H        -1.3725774389       -3.8903946467      -11.6368901004
 H         3.1798456577       -6.2222255606      -12.3713459032
 H         2.5765224264       -4.7937996553      -11.9974350921
 H         3.7595571003       -3.4742479529      -13.7335245687
 H         4.0880617836       -5.1485442858      -14.5450039944
 H         8.8341118525       -2.9676345042      -15.6049574464
 H         9.0348724456       -4.4705435442      -14.8066061598
 H        10.6529550561       -2.7861234405      -13.7659634701
 H         9.3636925670       -3.2439490244      -12.5706755492
 H         8.7972780301        1.4270710683      -13.4141980035
 H         9.3455566622        2.5151537059      -12.2138119364
 H         7.2525181876        3.5530445514      -12.1599711822
 H         6.8231404273        1.9090160154      -11.4817853789
 H         3.1374022926        0.9763639622      -12.7761651685
 H         4.5352259761        0.2143092673      -13.5563325275
 H         1.7426784746        0.3399314966      -14.9473688553
 H         2.4113818085       -1.0085563416      -13.8558581509
 H         4.0204711683        1.1266429350      -17.5705620431
 H         3.1752732420        1.1781684110      -19.1699231259
 H         5.1391896758        1.5980695461      -19.8944881706
 H         4.8275704127       -0.1109758650      -20.3859037255
 H         7.7659602418       -3.1755207625      -20.7485842653
 H         6.7332961189       -3.9595695025      -19.6206929267
 H         8.5288121645       -3.9855000796      -19.2832595867
 H         7.9434967923       -1.4346057574      -21.7028475364
 H         7.1336596264        0.2146164638      -21.4411305048
 H         6.2535142699       -1.2551832914      -21.2453593905
 H         9.5083832109       -0.2846845502      -19.7642109056
 H         8.9776455041        0.3454308800      -18.2197045027
 H         8.3693082260        1.1450789961      -19.7952432572
 H         2.5381680897       -2.9962244072      -16.9576395795
 H         1.1288436571       -2.4866190282      -17.9537469830
 H         1.0071720559       -2.5082447406      -16.1726445655
 H         1.4071835077        1.1316530757      -17.2128862596
 H         0.4342328005       -0.0550615174      -16.2804624465
 H         0.4295232031       -0.0825268288      -17.9845805801
 H         4.7601902575        4.6551540633      -13.3023189172
 H         5.2395244254        3.3430932048      -12.0735715248
 H         3.7501855046        3.3322382261      -12.6773950294
 H         6.2599049870        4.5073994806      -14.9425991820
 H         4.9579698022        3.8760195277      -16.0098024831
 H         6.4565527026        3.1032867290      -16.0102499635
 H         9.3946592841       -1.1141953755       -9.8917257781
 H        10.3463472832       -2.3499240520      -10.6060041126
 H         8.5718549280       -2.1904667001      -10.9243663069
 H        11.2490841083        0.4450908705      -12.8984013005
 H        11.6986837083       -1.0148480820      -11.9505266005
 H        11.2245877378        0.6198927857      -11.1364843721
 H         7.4216638919       -5.6993322457      -11.3079322127
 H         8.1947204419       -4.1251449089      -11.5384045131
 H         8.7275807851       -5.4071316812      -12.5251058409
 H         6.5125433975       -6.7103135494      -13.6581832088
 H         7.5750366660       -6.0193304319      -14.8015536195
 H         5.9146632485       -5.6860854899      -14.9802891993
 H         0.3705187320       -5.6076937496      -11.2786333699
 H         0.5596171031       -7.2291712546      -12.0184817405
 H        -1.0178464926       -6.3704062769      -11.8494741199
 H        -0.6064673574       -7.4287037316      -14.1892929067
 H        -0.2029565250       -6.2078166829      -15.4646248539
 H        -1.6488389009       -6.1304026230      -14.4004754061
 H        -1.4494429411        0.8148329803      -12.9083259655
 H        -3.0534337045        1.7422528226      -12.8462506534
 H        -2.8106204803        0.3458232907      -13.9861543865
 H        -3.0489378202       -0.3812079574       -9.6252365135
 H        -3.1266902527        1.2179064160      -10.0037640158
 H        -1.6608485377        0.5085475179      -10.2685746314
 H        -9.7058719127        0.2440951420      -11.3177504945
 H        -9.7545975886        1.4528493608      -12.4886339217
 H       -10.7315626521        1.6219034085      -11.0471629544
 H        -9.2326880459        4.0769922723      -10.5781892400
 H        -8.6567068132        3.6830919143      -12.1128450455
 H        -7.5278837237        3.9692371481      -10.7648690298
 H        -5.5812205543       -0.4720118229       -4.1112872458
 H        -5.8031965325        1.1777004055       -4.6054221541
 H        -5.2815024874        0.0542764754       -5.7924948290
 H        -7.3733970188       -2.1960184328       -6.0223294215
 H        -6.8982903335       -0.9968589484       -7.2322861500
 H        -8.6439183889       -1.3379197724       -6.7352111946
 H       -12.7329041590       -1.4519037292        0.4254989248
 H       -12.3438864323       -0.3315391081       -0.9395211648
 H       -11.0796643647       -1.1774592238       -0.1256725480
 H       -10.8825437089       -3.8450935762       -0.1381905136
 H       -12.0200595782       -4.6943560878       -1.1229042330
 H       -12.5252873138       -4.0861117008        0.2788241109
 H       -18.6760504907       -2.6087081398       -6.0060272074
 H       -17.2304412394       -3.4549273450       -5.5089873783
 H       -17.1174083110       -1.7651022420       -5.9709849914
 H       -18.7639142318       -0.5935216729       -2.6851416016
 H       -19.8137945772       -0.9047341558       -4.1402272215
 H       -18.3440202139       -0.0853554500       -4.2937724587
 H       -19.3158608642       -7.4733447836       -1.0375222904
 H       -20.9222803743       -6.9333564612       -0.5088911793
 H       -19.8374942488       -7.9000047742        0.6287077617
 H       -19.7334710141       -6.0015051234        2.5398408130
 H       -20.9326113007       -5.0081669775        1.8368184147
 H       -19.4332876757       -4.3056046704        2.1329073632
 Na      -16.8290394948       -3.5921154507       -0.9605597758
 Na        7.0626594532       -0.8392499745      -15.6168518814
