232

 C       -17.5488181336       -7.2248530162        1.9093137387
 C       -17.7308485313       -6.1295827803        0.8807038285
 O       -16.7781875894       -5.5146774488        0.4893407162
 C       -19.2889503573       -5.8114270564        0.5606944204
 C       -19.3616210385       -4.6388425311       -0.6122383573
 O       -18.8678567522       -3.5830734591       -0.3783031250
 C       -20.1948373168       -4.9075994968       -1.9302456418
 C       -20.0939001732       -3.7518287335       -2.9241369785
 C       -18.5632163950       -3.5517537811       -3.2330254939
 O       -17.7345513817       -4.4335987046       -2.9391738235
 C       -17.9311950407       -2.2500038524       -3.8243626490
 C       -16.6947591091       -1.8437635282       -3.0167100590
 O       -16.8413959307       -1.3202945948       -1.9008345797
 C       -15.3425585137       -2.1599087060       -3.5234715410
 C       -14.1849647042       -1.5221709362       -2.6940016505
 C       -13.7208934212       -2.6159510413       -1.8050244335
 O       -14.4443732355       -3.5928338529       -1.5318308891
 C       -12.2341426058       -2.6310719616       -1.3415395607
 C       -11.3777633873       -2.4073952187       -2.6535768570
 O       -11.8511780470       -2.9065670349       -3.6618670302
 C       -10.1432944408       -1.4763575826       -2.6392876420
 C        -9.3322617392       -1.6143158925       -3.9793330958
 C        -8.3337406312       -0.2801747752       -4.1293603582
 O        -8.3233351283        0.5787758653       -3.2567948596
 C        -7.4096671817       -0.1114069372       -5.3675957392
 C        -8.0035050069        1.1055636171       -6.1575508533
 O        -9.1059078555        1.6524684633       -6.0642348148
 C        -7.0126789364        1.8187050372       -7.1135392408
 C        -7.7068196613        2.6275161977       -8.2017353900
 C        -8.4171815003        1.7193472729       -9.3274333358
 O        -8.6952531060        0.5736707576       -8.9470029493
 C        -8.5189391381        1.9706446999      -10.8800075415
 C        -7.1610197546        1.2293762560      -11.3894088421
 O        -6.2540817178        1.9518079741      -11.7371810886
 C        -7.0772472406       -0.2762830673      -11.3607190869
 C        -5.6276804957       -0.8217970818      -11.0661617333
 C        -4.6753378814       -0.2891155810      -12.1372681265
 O        -5.0060569306       -0.1410057377      -13.3444177217
 C        -3.1626835616       -0.1622921133      -11.7348376392
 C        -2.6559009105       -1.6754045554      -11.6607915508
 O        -2.9088213480       -2.2620323263      -10.6473212668
 C        -2.2507744264       -2.3165562029      -12.9190590188
 C        -1.6613255714       -3.8261630016      -12.7235402467
 C        -0.2931811654       -4.1286335745      -13.4070622519
 O         0.4249932402       -3.2624038925      -13.8772382501
 C         0.1954172773       -5.6721739564      -13.3587346297
 C         1.7830088049       -5.5229812301      -13.8706641093
 O         1.9851355740       -5.3796159705      -15.0670331043
 C         2.8616129870       -5.5096300805      -12.8871369133
 C         4.0533260814       -4.5819897062      -13.5276748001
 C         5.1991739154       -4.6168054377      -12.5972270832
 O         5.0547247893       -4.6147834342      -11.4148362666
 C         6.7463465929       -4.7210241309      -13.2638436493
 C         7.1457119801       -3.4722107794      -14.0579261416
 O         6.3591992773       -2.5916280496      -14.3556268174
 C         8.6143605780       -3.3853632758      -14.4992493409
 C         9.5504044468       -2.7795198568      -13.5906597904
 C         9.4072806905       -1.2201142492      -13.4058810555
 O         9.2103910752       -0.4891592425      -14.3911693614
 C         9.6415903585       -0.6515151612      -11.8665109202
 C         8.7352083888        0.5944798849      -11.5959670061
 O         8.1259111483        0.6316450950      -10.5362525148
 C         8.7365345393        1.8192057062      -12.4843517763
 C         7.3399846127        2.5680948004      -12.4651477278
 C         6.4336166457        1.9918959220      -13.5878221081
 O         6.8496847664        0.9876315080      -14.1625570970
 C         5.1886410161        2.8344424105      -14.0140292678
 C         4.1742635896        1.7858395215      -14.6859806247
 O         3.5624536585        2.0376371183      -15.6657999644
 C         3.7632570221        0.6300965523      -13.7146816669
 C         2.7315456683       -0.2167344108      -14.4517400942
 C         3.2926427650       -0.6249613778      -15.8802265913
 O         4.5037152476       -0.6272102832      -16.0851867209
 C         2.3229771866       -0.9326472490      -17.1338002965
 C         3.0902940742       -0.6887216733      -18.4670806113
 O         3.3110080822       -1.5530465769      -19.3025676710
 C         3.7118625154        0.7577253785      -18.7397396107
 C         4.9682717845        0.4740257156      -19.6957351462
 C         6.2930705989        0.1405644732      -18.7569568442
 O         6.5005527295        0.6190429614      -17.7291785848
 C         7.4037027009       -0.7013075336      -19.4522727614
 C         7.5015592083       -2.2133522223      -18.7753613744
 O         7.4268661460       -2.3068981521      -17.5629469980
 C         7.6429311960       -3.5174448407      -19.6023713115
 C         7.1752770754       -0.8298621340      -20.9213061274
 C         8.7861495641        0.0328408662      -19.2608882993
 C         1.7585943055       -2.4435165751      -17.0547073123
 C         1.0805477118        0.0403493018      -17.2128544648
 C         4.3723185012        3.6173279311      -12.9023804579
 C         5.7023779305        3.7969621908      -15.2082113192
 C         9.3120698815       -1.6664861657      -10.6734966163
 C        11.1310060477       -0.2168150541      -11.9044578669
 C         7.6763916931       -5.0871183875      -12.1518349327
 C         6.8269359790       -6.0215683637      -14.2536767084
 C         0.0971852197       -6.1244796504      -11.8895974489
 C        -0.5819835889       -6.3722865322      -14.5823478967
 C        -2.5417668673        0.7227075335      -12.8513425668
 C        -2.7453343168        0.4851161845      -10.4090522081
 C        -9.7799255021        1.3064848303      -11.3640671246
 C        -8.6306214420        3.4437518614      -11.3188797002
 C        -5.9873088675        0.0574592519       -4.7935031259
 C        -7.4443868265       -1.2577606676       -6.3934859667
 C       -12.0859775064       -1.3840185972       -0.4232428090
 C       -11.6308094836       -3.7856992100       -0.6066184201
 C       -17.6312593424       -2.4942592053       -5.3510995378
 C       -18.8089419835       -0.8921056651       -3.8200729416
 C       -19.8315212865       -7.1723137928        0.0025811488
 C       -20.0305052537       -5.2794231508        1.7655178150
 H       -18.0801033635       -7.0559128298        2.8042646342
 H       -16.5024927148       -7.3439166462        2.2000242686
 H       -17.9215905191       -8.2188171027        1.5843662454
 H       -21.2429683680       -5.2463440823       -1.7281964598
 H       -19.8716191575       -5.7813676691       -2.4230860667
 H       -20.4459836391       -2.8488818019       -2.4909211179
 H       -20.6352428436       -4.1310889379       -3.8031776951
 H       -15.3354635213       -1.8617237409       -4.5514129377
 H       -15.3286748304       -3.3094541983       -3.5431627506
 H       -14.6685072197       -0.6533438458       -2.2675126187
 H       -13.5030685464       -1.0304233264       -3.4416242837
 H        -9.4904511004       -1.5977498474       -1.7659428097
 H       -10.5066001785       -0.4028487841       -2.4783291846
 H        -9.9227308227       -1.7114235165       -4.9039956629
 H        -8.6218398994       -2.4873419610       -3.9378975272
 H        -6.2881049718        1.1773479453       -7.6321162452
 H        -6.4719709823        2.5196434771       -6.4820318997
 H        -7.0118610578        3.3848012852       -8.7333546038
 H        -8.5515586324        3.2437927838       -7.7693105522
 H        -7.5208323368       -0.7362468117      -12.2190072674
 H        -7.7460722442       -0.5559166579      -10.4883715657
 H        -5.5862542890       -1.8959491024      -11.2774097777
 H        -5.3145520072       -0.5564304708      -10.1116287619
 H        -1.4637982701       -1.6007975432      -13.2911827453
 H        -3.0923656483       -2.2518214271      -13.6328804771
 H        -2.4528911743       -4.3840664422      -13.0958802881
 H        -1.5463798168       -4.0908280551      -11.6364014884
 H         3.2473391954       -6.4733878605      -12.5324683788
 H         2.7015293289       -5.1097022459      -11.8833295494
 H         3.7092852536       -3.6085237442      -13.6824909982
 H         4.2437495198       -5.0952102677      -14.4469818068
 H         8.6671459345       -2.7549517101      -15.4714772309
 H         8.8483012858       -4.4005649070      -14.8040422940
 H        10.5577439444       -2.8296971315      -14.1226569786
 H         9.5641561957       -3.2634347824      -12.6000356483
 H         9.0212427630        1.6666768377      -13.5634031297
 H         9.4453975330        2.5137639070      -12.0358417300
 H         7.5030181872        3.6532996984      -12.6141121205
 H         6.9364951585        2.4248912969      -11.4274829907
 H         3.2722994676        1.1235518293      -12.9173181877
 H         4.6413651877        0.1559210579      -13.2246924702
 H         1.7740264992        0.2193300156      -14.7658265383
 H         2.5709785874       -1.0938741054      -13.8705942269
 H         4.0624064476        1.1644547807      -17.8382673506
 H         3.1020108667        1.3936273017      -19.3892158495
 H         5.1280953649        1.4257129145      -20.2267610253
 H         4.8346071632       -0.3404958481      -20.4207210940
 H         7.5705454257       -3.4685052122      -20.6726030385
 H         6.7964287311       -4.1896343341      -19.3057393338
 H         8.5553361362       -3.9985622795      -19.2743302105
 H         7.8922193500       -1.4907102612      -21.3457422345
 H         7.2122381642        0.1464722503      -21.3636881626
 H         6.1089976081       -1.2318832788      -21.2606012125
 H         9.6042432583       -0.4894936554      -19.7530001142
 H         9.0682661932       -0.0780563154      -18.1957756542
 H         8.6876966853        1.0859298574      -19.6157153314
 H         2.4502854509       -3.1396850951      -16.5784346861
 H         1.4039961084       -2.8271166146      -18.0787668995
 H         0.8839020486       -2.3544944183      -16.4015376384
 H         1.3504797522        1.0705921587      -17.3631270793
 H         0.5170906247       -0.0050434468      -16.3134027485
 H         0.3935907141       -0.2222992535      -18.0555230677
 H         4.3523186186        4.6337426611      -13.1965809210
 H         4.7201989520        3.3946304972      -11.8878052717
 H         3.3067562090        3.3234021240      -12.8457359581
 H         6.4047577389        4.5926618260      -14.9381659728
 H         4.9462347282        4.1702368393      -15.7987697844
 H         6.2718181052        3.1477256331      -15.8516554877
 H         9.5182073006       -1.1691724375       -9.7754499448
 H         9.8788562392       -2.6107288632      -10.6427254011
 H         8.2235620623       -1.9275930893      -10.6342272466
 H        11.0758413863        0.4942485949      -12.6357626269
 H        11.7108611835       -1.0869807619      -12.1868141759
 H        11.3087641043        0.3278054201      -10.9870281565
 H         7.1575632083       -5.7877921850      -11.4564166644
 H         8.1383664159       -4.3195903767      -11.5278898748
 H         8.5225564880       -5.5893394605      -12.5459147014
 H         6.4652598294       -6.8222196408      -13.6714223379
 H         7.8757337366       -6.2537568612      -14.4950412229
 H         6.2740381970       -5.8838209158      -15.2105636123
 H         0.6320238622       -5.3973575297      -11.2632207696
 H         0.3894513317       -7.1228981340      -11.6672019130
 H        -0.9348977826       -6.0314314192      -11.5113331204
 H        -0.7673446996       -7.3866783483      -14.5419352972
 H        -0.0656870162       -6.0825695367      -15.4333802238
 H        -1.5403034958       -5.9155711605      -14.6225448396
 H        -1.5162012259        0.9460405093      -12.5970077981
 H        -3.1930845095        1.6303831065      -12.8384469015
 H        -2.5933968120        0.2532800081      -13.8738277581
 H        -3.1015262095        0.0428467108       -9.5239730125
 H        -3.1424538726        1.5376093263      -10.3114715708
 H        -1.7199545201        0.6586194262      -10.3028990247
 H        -9.9640413759        0.3408770917      -10.8756255032
 H        -9.7411083740        1.0104864442      -12.4141773953
 H       -10.6324124180        1.8539145414      -11.2326424406
 H        -9.2258142531        4.1034314908      -10.7052077561
 H        -9.0741538398        3.6078198488      -12.3012243213
 H        -7.6595439020        3.8646302919      -11.2716248771
 H        -5.7985759267       -0.6998242655       -4.0636257077
 H        -6.0205645885        1.0389420351       -4.3385198780
 H        -5.2587158614        0.1140396083       -5.6032362095
 H        -7.2865162296       -2.1697113127       -5.8996176019
 H        -6.7873267545       -1.0422343147       -7.2520799004
 H        -8.4522244304       -1.4460221038       -6.6936014057
 H       -12.7530184067       -1.4148274844        0.4329095513
 H       -12.2242503561       -0.4612144849       -0.9549813748
 H       -11.0909505151       -1.4219371401       -0.0869122042
 H       -10.6337383637       -3.4889251647       -0.2435768353
 H       -11.6134502907       -4.7247193094       -1.0840076362
 H       -12.2372144874       -4.0797459119        0.2310752859
 H       -18.6309655190       -2.4164141951       -5.8461816949
 H       -17.2483712234       -3.4648691348       -5.4704499832
 H       -16.9273355683       -1.7730427922       -5.8120690360
 H       -19.0963810547       -0.6745197940       -2.7431400928
 H       -19.6757483924       -0.7939061246       -4.4318743887
 H       -18.1751467288       -0.0518636772       -4.0183383867
 H       -19.2103053161       -7.4354914109       -0.8967035483
 H       -20.8067183013       -7.0568764930       -0.3617297300
 H       -19.6825679439       -7.9658435028        0.8154141641
 H       -20.2887991702       -5.9611466134        2.5916740026
 H       -20.9521464507       -4.8191059386        1.4188014249
 H       -19.5849052483       -4.3800282634        2.2489441065
 Na      -16.7171558693       -3.6822930888       -0.9941830182
 Na        7.1081367020       -0.7635507240      -15.7531618494
