232

 C       -17.6047513316       -7.1062549183        2.0953271814
 C       -17.8022624795       -6.2158806502        1.0008250840
 O       -16.8114200332       -5.7044804941        0.4264268226
 C       -19.3264727266       -5.8436360029        0.5961362873
 C       -19.3124384730       -4.7753400355       -0.5236802583
 O       -18.8259994867       -3.6305233602       -0.3294463529
 C       -20.0302721198       -4.9943776719       -1.9016040736
 C       -19.9771045267       -3.7247165996       -2.7634118929
 C       -18.4398701155       -3.4129076272       -3.0908125767
 O       -17.5683630974       -4.2245831903       -2.9498685096
 C       -18.0475875176       -2.0583116187       -3.7592753971
 C       -16.7155074821       -1.6029703502       -2.9304999848
 O       -16.8324270541       -1.1316716867       -1.8467221756
 C       -15.3563089842       -1.8863540935       -3.5587475174
 C       -14.2109761033       -1.6391476720       -2.5592807900
 C       -13.6156565026       -2.6923165562       -1.7258284713
 O       -14.1072852822       -3.6864186945       -1.2408777841
 C       -12.1232878416       -2.4659437938       -1.3359881170
 C       -11.2962765038       -2.2133754908       -2.6611857344
 O       -11.5929663850       -2.8482640088       -3.6778810943
 C       -10.0544077623       -1.3559051376       -2.6988932109
 C        -9.3037743616       -1.5310124402       -3.9389430026
 C        -8.5208783128       -0.2314491617       -4.1912111076
 O        -8.5290929269        0.6421333649       -3.3322650125
 C        -7.6125045739       -0.0830316291       -5.4703844300
 C        -8.0538694490        1.2196293052       -6.3974155161
 O        -9.1708106446        1.5950356449       -6.1794313071
 C        -7.1094059969        1.9850542218       -7.2877581088
 C        -7.7253377073        2.7299315153       -8.5591793021
 C        -8.3364289332        1.6153942316       -9.4175178088
 O        -8.4692005130        0.5266496654       -8.9372080386
 C        -8.4806753844        1.8797303742      -10.9597965658
 C        -7.1610446455        1.3321671000      -11.4899135093
 O        -6.2080542845        2.0368065326      -11.6514370059
 C        -7.1032433266       -0.2580506880      -11.4599169454
 C        -5.7104332018       -0.7605961148      -11.2712035444
 C        -4.5899587947       -0.2307013679      -12.2568051271
 O        -4.8841466590       -0.1288496064      -13.3690605152
 C        -3.0959831413       -0.0162587780      -11.7495427580
 C        -2.5325527546       -1.4675522242      -11.6001292506
 O        -2.6449758716       -2.1827095973      -10.6002078166
 C        -1.9514785105       -2.1342391628      -12.8074344963
 C        -1.6950938300       -3.6504577233      -12.8740267948
 C        -0.2952390176       -3.9144623520      -13.4530179246
 O         0.3294831606       -2.9818140835      -13.8661514750
 C         0.2390896459       -5.4289481543      -13.4697617237
 C         1.6932635342       -5.5485238822      -13.9458955104
 O         1.8494522177       -5.6933278311      -15.1284220614
 C         2.8293083184       -5.6433474236      -12.9479195592
 C         4.0467293851       -4.7857918403      -13.3257948371
 C         5.3209191464       -4.7921984478      -12.5248680997
 O         5.1702855273       -4.8611947510      -11.3023207842
 C         6.7492788562       -4.8903203646      -13.1694814974
 C         7.0476665987       -3.6138717286      -13.9493283544
 O         6.1797119874       -2.7947781770      -14.1936363980
 C         8.4539259346       -3.5607042124      -14.6091341188
 C         9.5701744637       -2.8498942882      -13.6352492918
 C         9.2808193648       -1.3121159820      -13.3728312952
 O         8.9240610024       -0.5850574871      -14.2611025667
 C         9.5390032021       -0.6732880143      -11.9213733800
 C         8.6808508431        0.7501156872      -11.7229159926
 O         7.7939543678        0.7213053733      -10.9067161317
 C         8.9208580910        1.9722000174      -12.5773811471
 C         7.6875596945        2.9160386458      -12.7662695089
 C         6.4470791760        2.1510856881      -13.3521578200
 O         6.5687942240        1.0452626160      -13.8354117032
 C         5.0949213246        2.8884504894      -13.8042173710
 C         4.1220494515        1.8477470805      -14.5601602923
 O         3.4106008587        2.2221847166      -15.4619341297
 C         3.8471332563        0.4413391613      -13.9079971526
 C         2.9214235948       -0.4822328111      -14.5918174565
 C         3.4836128108       -0.6051313359      -16.0988843567
 O         4.6615662027       -0.7904939212      -16.2465140374
 C         2.4062293576       -0.9014511532      -17.2466701162
 C         3.2660611921       -0.7505546911      -18.5562553129
 O         3.2953497544       -1.6813473995      -19.2946330925
 C         3.8641873923        0.5705811981      -18.9316897231
 C         5.1161847631        0.5273506395      -19.7794898298
 C         6.3576575181        0.1201562863      -18.9372487586
 O         6.5666502725        0.7198261512      -17.8196710799
 C         7.4230391572       -0.8567210782      -19.4055518406
 C         7.2437761468       -2.2559064237      -18.6952008659
 O         7.1870320211       -2.1742068991      -17.4954014128
 C         7.5603035747       -3.5651775127      -19.4763166894
 C         7.3143824764       -1.0318605650      -21.0028830636
 C         8.8530456911       -0.5320593099      -19.0706035567
 C         2.1532320242       -2.4640313513      -17.0220323741
 C         1.2098128362       -0.0202747648      -17.1654378229
 C         4.2989838582        3.6596655409      -12.6094555191
 C         5.4904966860        4.0318458512      -14.8605166240
 C         9.0825998901       -1.7024985265      -10.8258143949
 C        11.0754510847       -0.3704313309      -11.8035133881
 C         7.6949212742       -5.1260314443      -11.9421322704
 C         6.6174836832       -6.0925588306      -14.2388110207
 C         0.0832091672       -6.1065558005      -12.0194600878
 C        -0.6696892187       -6.4198603291      -14.2826805906
 C        -2.2009478329        0.6768227332      -12.8359648690
 C        -3.2639564744        0.7744301232      -10.4648598145
 C        -9.7330860930        1.0610745838      -11.3847443959
 C        -8.5762107442        3.3429028461      -11.4586490211
 C        -6.1867732467        0.2594592990       -4.8670230118
 C        -7.5514620655       -1.4444379931       -6.2822288598
 C       -12.0424146965       -1.3679207560       -0.3457749111
 C       -11.5868544555       -3.7836189906       -0.8292747907
 C       -17.6610864537       -2.4984609972       -5.2730021231
 C       -19.2303407780       -1.1384173619       -3.7759212526
 C       -19.9850298196       -7.2326907451        0.0029569724
 C       -20.2441819683       -5.2159506344        1.7022470558
 H       -18.2973893460       -6.8038573882        2.9417677173
 H       -16.5400172264       -7.1365814699        2.4048058347
 H       -17.8310695901       -8.1392789515        1.9037534644
 H       -20.9699677927       -5.4821087411       -1.6549804241
 H       -19.5118486616       -5.7852717689       -2.5384100779
 H       -20.5066776820       -2.9666790298       -2.1018677917
 H       -20.2850048672       -3.8601857161       -3.7834441515
 H       -15.2284473147       -1.2970109903       -4.5238747953
 H       -15.3110695136       -2.9057161403       -3.8476263593
 H       -14.3828721994       -0.7809161371       -1.8662700394
 H       -13.5688463102       -1.2388423146       -3.2696498227
 H        -9.4076128897       -1.4324956663       -1.8016422711
 H       -10.4079614607       -0.3542360380       -2.5606028357
 H       -10.0420799487       -1.6216735027       -4.7296471502
 H        -8.6530744709       -2.3734796855       -3.8950985440
 H        -6.3262869717        1.3477845418       -7.7231552648
 H        -6.6320799782        2.7469360186       -6.6356525802
 H        -7.0329274644        3.1894797319       -9.2066076576
 H        -8.4787820142        3.4598266501       -8.3381886226
 H        -7.4685904976       -0.6878477561      -12.4223880925
 H        -7.7947191950       -0.6691664132      -10.7748946649
 H        -5.6781958422       -1.8337942307      -11.4783071972
 H        -5.4246696546       -0.5657445367      -10.1784001761
 H        -0.9644090359       -1.7367905064      -12.9804845191
 H        -2.6155916434       -1.7701325023      -13.5977419296
 H        -2.6316291382       -4.0816196848      -13.4165240240
 H        -1.5810277653       -4.0736786030      -11.8550897256
 H         3.1719698659       -6.6611792709      -12.9123509557
 H         2.8082452155       -5.3314685692      -11.8982758558
 H         3.5972117628       -3.7058764834      -13.2698574774
 H         4.1373843168       -4.8850919790      -14.4421159706
 H         8.2982191151       -2.9992505718      -15.4838646462
 H         8.7124903095       -4.6222021431      -14.8759549992
 H        10.4921743673       -2.8358497772      -14.1428935262
 H         9.6336871662       -3.3967930854      -12.6922177644
 H         9.1636095973        1.6672304682      -13.5979174158
 H         9.7300157299        2.6601261312      -12.1652381586
 H         8.0101785432        3.6500613894      -13.5182239949
 H         7.4546210663        3.4005811714      -11.8525453955
 H         3.4823218680        0.7500063118      -12.8741614723
 H         4.8085497807        0.0945370958      -13.7229191335
 H         1.9183952901       -0.1624703613      -14.6313473412
 H         3.0022960886       -1.5405493530      -14.2866738970
 H         4.1468384210        1.1641739135      -18.0016282550
 H         2.9981256630        0.9316059067      -19.5195552670
 H         5.3439910446        1.5301303274      -20.1526422455
 H         5.1335753373       -0.2011159060      -20.5734593922
 H         7.1476193818       -3.4869736579      -20.4551979391
 H         7.1745895882       -4.4513568284      -19.0833555767
 H         8.6778624888       -3.6567348531      -19.4886781342
 H         8.3268672651       -1.2726063866      -21.3437207722
 H         6.8904147997       -0.1902346263      -21.5557057001
 H         6.6684986264       -1.7608641146      -21.3161955904
 H         9.4796470332       -1.3308905329      -19.4453369721
 H         9.0530687878       -0.4713801043      -18.0397235917
 H         9.1026741350        0.3385482483      -19.6043529020
 H         2.9805824657       -2.9602462077      -16.4781673898
 H         2.1369064153       -2.8835196031      -17.9866475385
 H         1.1981965508       -2.6321782030      -16.4740396920
 H         1.4203477579        1.0762225791      -17.0861652272
 H         0.6448163189       -0.2195470884      -16.2015608746
 H         0.6189804187       -0.1463729135      -18.0492998851
 H         4.7069125677        4.6491648815      -12.3012563808
 H         4.2605460316        2.9352026307      -11.7881060331
 H         3.2967136186        3.9117721698      -12.9366287396
 H         6.2595504231        4.6980148414      -14.4671162472
 H         4.5299046969        4.6167002019      -14.8886940079
 H         5.9575751012        3.8568437854      -15.8563636345
 H         9.4610321176       -1.4904571434       -9.7727281677
 H         9.3536629204       -2.7577466370      -11.1062965061
 H         8.0042251793       -1.7883896162      -10.7320683098
 H        11.2927061218        0.5774294120      -12.3614329733
 H        11.4845681826       -1.2745258865      -12.1974229703
 H        11.1417382216       -0.1504400390      -10.7463164452
 H         7.5200596561       -6.0542363840      -11.5152112654
 H         7.3241982344       -4.5007173652      -11.1572246891
 H         8.7827166388       -4.9378848207      -11.9888575983
 H         6.0946148515       -7.0045824958      -13.7417461256
 H         7.6393690158       -6.4380642149      -14.4826703218
 H         6.1216450346       -5.7193267455      -15.1459319094
 H         0.4379860647       -5.5340864327      -11.1681003442
 H         0.5519476627       -7.1400188599      -12.0468641924
 H        -0.9325072401       -6.4447975474      -11.7912351016
 H        -0.1843615924       -7.4579466977      -14.2107954405
 H        -0.7049188722       -6.1198874245      -15.3679510276
 H        -1.7138197086       -6.4729553007      -13.9526653280
 H        -1.1401139926        0.6237418622      -12.5662616386
 H        -2.5366570405        1.7052074900      -12.8547135743
 H        -2.3393014639        0.2841265287      -13.8087972566
 H        -3.9836047286        0.3170665199       -9.7496156088
 H        -3.6656683084        1.7321935216      -10.5895095323
 H        -2.3668583036        0.9816025755       -9.8100796253
 H       -10.0890510724        0.3484521449      -10.6784931371
 H        -9.5346290185        0.4264990053      -12.2300716428
 H       -10.6846016796        1.6721282079      -11.5589243855
 H        -9.2104049242        4.0446068719      -10.9201361293
 H        -9.0329938765        3.3856434337      -12.4378467537
 H        -7.6012778855        3.8534861155      -11.5144845516
 H        -5.8166689392       -0.6984419610       -4.4699565505
 H        -6.3250282236        0.9989294129       -4.0443392641
 H        -5.4806137055        0.6300165120       -5.6353363015
 H        -7.4150381362       -2.3514146713       -5.6986218716
 H        -6.9221457638       -1.2403531122       -7.0815560550
 H        -8.5543802774       -1.6763194018       -6.7434416375
 H       -12.6174961108       -1.6875963247        0.5401187034
 H       -12.4397877948       -0.3948209098       -0.6931883484
 H       -11.0106862650       -1.3099053515       -0.0017681895
 H       -10.5235246317       -3.6597960120       -0.6373354924
 H       -11.7502684637       -4.5998866242       -1.6222565794
 H       -12.0612461313       -4.3226661691        0.0361314023
 H       -18.4976700464       -3.0341005095       -5.7230844679
 H       -16.7276211864       -3.1224623787       -5.3010954747
 H       -17.3875880256       -1.5471649347       -5.7919545331
 H       -19.8419579595       -1.1950712036       -2.8757154036
 H       -19.9158907473       -1.5089671707       -4.5469734225
 H       -19.0506808798       -0.0893022955       -3.9139182887
 H       -19.4330157114       -7.6815591226       -0.7803060380
 H       -20.9471168663       -6.8577401460       -0.4284178838
 H       -20.1396511803       -7.8890773141        0.7542823027
 H       -20.4935595903       -5.8343557974        2.5340795144
 H       -21.1620390943       -4.8144866509        1.2718991358
 H       -19.8397741904       -4.3240306987        2.1630024243
 Na      -16.3167297508       -3.8902347782       -0.9651961040
 Na        6.9174857793       -0.5073398881      -15.8980654099
