232

 C       -17.6951825769       -7.0517848970        2.2724832511
 C       -17.8869079648       -6.1849945379        1.0492917648
 O       -16.9830498334       -5.7317109275        0.4143752488
 C       -19.4182778324       -5.8607884926        0.5045210530
 C       -19.3516196457       -4.7886196900       -0.4998769782
 O       -18.6675877940       -3.8210970752       -0.2358176226
 C       -19.9392647345       -4.9729258984       -1.9151584687
 C       -19.7995666712       -3.7871759166       -2.7550924858
 C       -18.3754275433       -3.4492762312       -3.1823259466
 O       -17.4684616730       -4.2351477008       -2.8743989849
 C       -18.1160164819       -2.0643307734       -3.8072585794
 C       -16.7706124457       -1.5396118087       -2.9294501529
 O       -16.9491095822       -1.0766239836       -1.7958840840
 C       -15.3686723788       -1.7986864450       -3.5096139780
 C       -14.2355390836       -1.5104190339       -2.4612481390
 C       -13.5696232070       -2.7302018325       -1.6464578325
 O       -14.1649990322       -3.6931134005       -1.1563707404
 C       -12.0238525424       -2.5318585124       -1.3423557294
 C       -11.2378138625       -2.2260435407       -2.6804544633
 O       -11.5547071608       -2.8356961978       -3.7173621390
 C       -10.0111939286       -1.2777778720       -2.6634937007
 C        -9.2879640210       -1.4133111758       -4.0353900945
 C        -8.4239633292       -0.1481899987       -4.2725881032
 O        -8.6544558648        0.7956054901       -3.4878835285
 C        -7.4948732128        0.0207948284       -5.5294484078
 C        -8.1474021509        1.2259049991       -6.3903349501
 O        -9.3046861742        1.5800358831       -6.2966101539
 C        -7.0813304589        1.9739962427       -7.2285742963
 C        -7.6689513511        2.7265247852       -8.4888596619
 C        -8.3189031450        1.6288063394       -9.4451151839
 O        -8.4651464441        0.4890035779       -8.9653190624
 C        -8.5712480342        1.7993411648      -10.9492567821
 C        -7.1302299928        1.1979491130      -11.4972321431
 O        -6.1889487868        1.9282935898      -11.5948858639
 C        -7.0093620635       -0.2729845888      -11.7240455878
 C        -5.6750056377       -0.8104496524      -11.3899817396
 C        -4.5505477220       -0.2614121812      -12.3763535350
 O        -4.8236332199       -0.1067515283      -13.5700763389
 C        -3.1293578189       -0.0549146147      -11.7636048834
 C        -2.5148867749       -1.4776092473      -11.5711245970
 O        -2.5754595343       -2.0343641474      -10.4698819806
 C        -1.8873247296       -2.0228402991      -12.8660296297
 C        -1.6463527127       -3.5041446143      -12.8357398823
 C        -0.2500289809       -3.9311755793      -13.4104038352
 O         0.4241604680       -3.1059462158      -13.9003298129
 C         0.1172726897       -5.4938469622      -13.4211475487
 C         1.6582015487       -5.6538720660      -13.9739307555
 O         1.7991155540       -5.7714755135      -15.2008940355
 C         2.8495050562       -5.6303225850      -13.0298993845
 C         4.0299176271       -4.6695447104      -13.4184264351
 C         5.2769755411       -4.9008666011      -12.3925989300
 O         5.1716064234       -4.9642924113      -11.1841982208
 C         6.6660670627       -4.9283522902      -13.0348324672
 C         7.0491623649       -3.6615857800      -13.9205557591
 O         6.2359022255       -2.8094311205      -14.1402657237
 C         8.4708291988       -3.5087585722      -14.5599912598
 C         9.4255525850       -2.7362651756      -13.6918852420
 C         9.1283223866       -1.3124691030      -13.4010959671
 O         8.6589568267       -0.5439551412      -14.2632446773
 C         9.4731718015       -0.7423271873      -11.9538157975
 C         8.5755730766        0.6559384685      -11.9198879025
 O         7.6793665207        0.6722383691      -11.0773538984
 C         8.8907546591        1.9055557882      -12.7283842276
 C         7.6984169490        2.9792169837      -12.9212845147
 C         6.4447857394        2.2255287301      -13.4494216266
 O         6.6634990783        1.0541794024      -13.6800331787
 C         5.0226827410        2.9733603577      -13.7285166391
 C         4.0430208974        1.9245696358      -14.3973958440
 O         3.4218503754        2.1954336518      -15.3565249349
 C         3.8627518679        0.4821624591      -13.8012385005
 C         3.1154351674       -0.3859738570      -14.6810271347
 C         3.5718704500       -0.7691991691      -16.1129891296
 O         4.7244576758       -0.7896109251      -16.4464190405
 C         2.5552674241       -1.0110609673      -17.2306146942
 C         3.2133528150       -0.8531900404      -18.6829732913
 O         3.4048332333       -1.7991211311      -19.4076831423
 C         3.9130642928        0.6590599677      -18.8879480556
 C         5.1329614058        0.5444292340      -19.8442120907
 C         6.4650209359        0.1403099208      -19.0243377925
 O         6.5999130565        0.7292982019      -17.9476838590
 C         7.4875894575       -0.9725140918      -19.4431012835
 C         7.2281816724       -2.2722582797      -18.6484763510
 O         7.0013016650       -2.3545588052      -17.4741440085
 C         7.4384386572       -3.5783154467      -19.3466479082
 C         7.4458103780       -1.1146256563      -21.0499599627
 C         8.8984627671       -0.5573708530      -19.0238202838
 C         2.1916065300       -2.5056326140      -16.9996400291
 C         1.3419936009       -0.0376846534      -17.1668719914
 C         4.5095015456        3.4693153587      -12.3942660993
 C         5.3399273363        4.0931493815      -14.7209546899
 C         8.8890467004       -1.5774640250      -10.8060711243
 C        11.0186930247       -0.3711203151      -11.8373965481
 C         7.7661289244       -5.2639681750      -12.0292386697
 C         6.6721109789       -6.1128417313      -14.0885953925
 C         0.0438062761       -5.9376447445      -11.9043817634
 C        -0.8274126414       -6.2938035056      -14.3510762363
 C        -2.2642573425        0.7903607163      -12.7069178602
 C        -3.2532505677        0.8183858779      -10.4594156965
 C        -9.6844581858        0.9815099737      -11.5316792190
 C        -8.6138802139        3.2836888432      -11.2993298730
 C        -6.0493061439        0.4131939634       -5.0181243133
 C        -7.6646414746       -1.2330920242       -6.3184189547
 C       -11.9108999825       -1.3712632231       -0.3320560641
 C       -11.4841774102       -3.8451777064       -0.7904467181
 C       -17.8132771128       -2.4334138451       -5.2691075720
 C       -19.2829126140       -1.0920280314       -3.7568551654
 C       -20.0119441419       -7.1834178293        0.0290050828
 C       -20.1250631764       -5.2703302832        1.6897113707
 H       -18.4310499041       -6.8359285476        3.0509195473
 H       -16.6358603932       -7.0301373561        2.6312912812
 H       -17.8146660237       -8.1234424798        2.0652614676
 H       -21.0211738344       -5.2676411456       -1.7649377417
 H       -19.5273889421       -5.8482765928       -2.4033938274
 H       -20.2539590839       -3.0595164427       -2.0254980375
 H       -20.2924475502       -3.9144367813       -3.7347962926
 H       -15.3446612206       -1.1816754865       -4.4112583783
 H       -15.2859740322       -2.8138564709       -3.8477255956
 H       -14.5719454326       -0.8418905858       -1.6633775749
 H       -13.6193624575       -0.9015558478       -3.1177595909
 H        -9.3657740659       -1.5103009356       -1.8794194015
 H       -10.3173989709       -0.2901000049       -2.3569478426
 H       -10.0851754377       -1.6068473680       -4.7460333918
 H        -8.5444429300       -2.2686212965       -3.9100691758
 H        -6.2446352312        1.3508739274       -7.5602689668
 H        -6.7131346462        2.7730533288       -6.5728717351
 H        -7.0032131590        3.3308298632       -9.0793734083
 H        -8.4502731690        3.3104778280       -8.1166920051
 H        -7.1997802985       -0.4186912905      -12.8106531583
 H        -7.8978980628       -0.8198551444      -11.3074761455
 H        -5.6163121369       -1.9395779200      -11.3202248327
 H        -5.4117765240       -0.3497220281      -10.4291289916
 H        -0.8606229478       -1.6758888828      -12.9751850649
 H        -2.5146096261       -1.5780696032      -13.6174745478
 H        -2.4244673735       -4.0106431271      -13.3841935882
 H        -1.6909315337       -3.7576241523      -11.7872722459
 H         3.4074995454       -6.5832086488      -12.9245413318
 H         2.6458532621       -5.2576994303      -11.9913819809
 H         3.6779548816       -3.5766419890      -13.6584221030
 H         4.1996979545       -5.0205794975      -14.4570174902
 H         8.2653433168       -2.9813385316      -15.4849899881
 H         8.9409915952       -4.4562958535      -14.7124998942
 H        10.2779987623       -2.6890862721      -14.2993078316
 H         9.6562506571       -3.2991269732      -12.7542904194
 H         9.2723483431        1.6486108719      -13.7107417962
 H         9.5902163222        2.4141393434      -12.1555141138
 H         8.0389969139        3.8527967313      -13.5978164809
 H         7.4854236192        3.3077429832      -11.9038933861
 H         3.4342560031        0.5054966234      -12.7683467734
 H         4.9366545120        0.2422351188      -13.7020562590
 H         2.1918783337        0.1832718569      -14.9963057892
 H         2.7962904774       -1.3569519522      -14.2250903949
 H         4.2851156522        0.9524440632      -17.9076400893
 H         3.0962663941        1.2597649996      -19.3059370601
 H         5.4523688415        1.4816542935      -20.2617032487
 H         4.9649524075       -0.1793954320      -20.6386796098
 H         6.6998595443       -3.7495867834      -20.0960081690
 H         7.3431542103       -4.4014100502      -18.6156477280
 H         8.5014407791       -3.6505212714      -19.7273161658
 H         8.2592204060       -1.7239404074      -21.3891115889
 H         7.5109048825       -0.1585915585      -21.4862827369
 H         6.4100260496       -1.4265264515      -21.5036727456
 H         9.5363630772       -1.4223692656      -19.0879024297
 H         8.9341231527       -0.1946917295      -18.0099258092
 H         9.2750263665        0.1794129661      -19.7339613357
 H         2.9706942904       -3.1945385261      -16.7579691847
 H         1.8101242723       -2.8341086906      -17.9360565763
 H         1.4067443471       -2.5036988302      -16.2393509555
 H         1.4720875271        1.0376025932      -17.0143073382
 H         0.7002252210       -0.3047668882      -16.3447258416
 H         0.8516561243       -0.1871061395      -18.1588816372
 H         5.3004518966        3.9193079540      -11.7437062681
 H         4.0772122086        2.5729298460      -11.8580655746
 H         3.8425091116        4.3026343486      -12.5439948575
 H         6.1327915962        4.8752831423      -14.4609171363
 H         4.4287122810        4.5574522803      -15.0291737566
 H         5.9323565509        3.6559740485      -15.5779490494
 H         8.8961351189       -1.0306809789       -9.8994533721
 H         9.3396967514       -2.6083524995      -10.6765253380
 H         7.8247831363       -1.8509879000      -11.0063906495
 H        11.1892578688        0.2850765305      -12.6242509901
 H        11.4213721489       -1.3853650354      -12.0002484956
 H        11.1602740354        0.1680948599      -10.8554198175
 H         7.7636577003       -6.2918726500      -11.6729175302
 H         7.8361063162       -4.6734264478      -11.0930493739
 H         8.6963899241       -5.1091958126      -12.5669437790
 H         6.2074967584       -6.9264065453      -13.5627013061
 H         7.6397714504       -6.4246604854      -14.4125753520
 H         6.0214914630       -5.8207828572      -14.9347212716
 H         0.3842237791       -5.1162421568      -11.2430837290
 H         0.6476473792       -6.8270400182      -11.7360826440
 H        -0.8925858117       -6.3600181863      -11.5402626294
 H        -0.2393585771       -7.2137621306      -14.7053045590
 H        -0.9573762880       -5.6443965251      -15.2573636098
 H        -1.8914253247       -6.5993303431      -14.0465329821
 H        -1.2355411290        0.6045704134      -12.5791371977
 H        -2.4652720455        1.8568145965      -12.4236439916
 H        -2.5046642633        0.6968051067      -13.7755207650
 H        -3.6233978272        0.3790335182       -9.5446197175
 H        -3.8522155780        1.7438455875      -10.5507152462
 H        -2.2626744391        1.1838700326      -10.1510053762
 H        -9.9328979599        0.0636876853      -10.9974384097
 H        -9.3792286494        0.5692027710      -12.5456907359
 H       -10.6612019642        1.4485470057      -11.5713211852
 H        -9.4227739834        3.8200574393      -10.7653283467
 H        -8.8615303491        3.5428212500      -12.3499332016
 H        -7.7257740270        3.8228725784      -11.0458383523
 H        -5.6663950314       -0.3883313060       -4.4812107781
 H        -6.2172879642        1.3001136004       -4.3731971190
 H        -5.3100902750        0.6245809252       -5.8395838358
 H        -7.5412962952       -2.1336882929       -5.7265644958
 H        -7.1279340621       -1.1893003593       -7.2592507336
 H        -8.7574480003       -1.3230301149       -6.6320601826
 H       -12.4374038762       -1.7457073010        0.6157820277
 H       -12.4232120986       -0.4210546916       -0.6615135507
 H       -10.9230147244       -1.2412561866       -0.0384753925
 H       -10.4233913438       -3.7501290507       -0.5969313114
 H       -11.6674430441       -4.7153917532       -1.4633852031
 H       -11.9221008260       -4.1974695121        0.1349057510
 H       -18.6536039598       -3.0367002701       -5.5943501613
 H       -16.9232805973       -2.9045928906       -5.4650584538
 H       -17.7738963508       -1.4317805113       -5.7812689402
 H       -19.6335561034       -0.6884757474       -2.7216959800
 H       -20.1893481746       -1.5578448540       -4.1488867795
 H       -19.0557391022       -0.2458712261       -4.3510293538
 H       -19.3381351199       -7.5226589044       -0.7597207657
 H       -20.9688785569       -6.9917955956       -0.3756666451
 H       -20.0308228932       -7.9235645699        0.8413769754
 H       -19.9646338161       -5.8722427341        2.5357932756
 H       -21.1588479639       -5.0792494535        1.6066690400
 H       -19.7189271031       -4.2912601664        1.9964131507
 Na      -16.2807348301       -3.9840787652       -0.9409879855
 Na        6.8056917915       -0.4403018793      -15.6741794421
