232

 C       -17.7192669717       -7.1635334913        2.5043217404
 C       -17.8931043663       -6.3018316376        1.1868323866
 O       -16.8611482208       -5.9476239521        0.5720549939
 C       -19.3869349592       -5.9047549664        0.6226876616
 C       -19.3355627713       -4.8797137902       -0.4381520585
 O       -18.6039368350       -3.8782691938       -0.3185110051
 C       -19.9261952156       -5.1230395996       -1.8205171925
 C       -19.7798750297       -3.8438586614       -2.7956180296
 C       -18.3951224262       -3.4244425618       -3.2002219007
 O       -17.4650465417       -4.1750308250       -3.0447229752
 C       -18.0216850022       -2.0244103096       -3.8374049532
 C       -16.7858738560       -1.5591494311       -2.8831883736
 O       -17.0534418418       -1.0292414609       -1.8744158224
 C       -15.2843374055       -1.8120833262       -3.2320495600
 C       -14.3071961048       -1.3521384791       -2.1331456536
 C       -13.5896979802       -2.5473730417       -1.5786471637
 O       -14.1311616030       -3.5843438704       -1.2171883829
 C       -11.9728644118       -2.4991271922       -1.3912895364
 C       -11.1409814078       -2.3070226776       -2.7783110153
 O       -11.6509996747       -2.8197192992       -3.7473930506
 C        -9.9967722496       -1.2957146726       -2.7157382173
 C        -9.1736518452       -1.1288344880       -4.0026473615
 C        -8.5204546073        0.2200818228       -4.2768127180
 O        -8.6179907078        1.2144776686       -3.6111032650
 C        -7.5314467200        0.2329413409       -5.5788025277
 C        -8.1815414775        1.3338938281       -6.5566774287
 O        -9.3780797803        1.5717559383       -6.5381011318
 C        -7.1933284453        2.2195190350       -7.3088287591
 C        -7.8537979430        2.5192957254       -8.6155128191
 C        -8.3518417169        1.3057486067       -9.4516595282
 O        -8.5752216152        0.2403001262       -9.0020543115
 C        -8.4586302131        1.6845386653      -10.9523284876
 C        -7.0570038980        1.2322472773      -11.5553385053
 O        -6.0040768199        1.8400981868      -11.4602029338
 C        -7.0357223937       -0.2260231118      -12.1489222843
 C        -5.6653101548       -0.8705585182      -11.7479549460
 C        -4.4955914873       -0.2378954692      -12.4712354976
 O        -4.5017699032       -0.1783897767      -13.6525533875
 C        -3.0191983001        0.1429917975      -11.7689948755
 C        -2.3643485069       -1.2512491155      -11.6667286212
 O        -2.4403209335       -1.8205516118      -10.5806241070
 C        -1.7103391652       -1.8975705652      -12.9066839050
 C        -1.3585422418       -3.4093122735      -12.6886699832
 C        -0.1101395085       -3.8292955700      -13.3613513678
 O         0.6420255969       -3.0605773988      -13.9692185866
 C         0.1236316799       -5.3967352399      -13.3049698779
 C         1.5645409352       -5.6685136670      -13.9292371174
 O         1.7304366436       -5.8251641096      -15.0799195716
 C         2.7525708532       -5.5281856398      -12.9423695321
 C         3.9713771290       -4.6524386588      -13.4130051844
 C         5.1688999993       -4.9551650466      -12.5207863112
 O         5.0881169460       -5.0975229016      -11.2825331608
 C         6.6361901521       -5.0439559289      -13.1398805223
 C         7.0409837850       -3.7053853154      -13.8532321909
 O         6.2444700817       -2.7631337431      -13.9169090821
 C         8.4429975492       -3.5768539853      -14.5503168590
 C         9.4190491700       -2.6739577969      -13.6017794860
 C         8.9145205565       -1.2306507016      -13.4494538362
 O         8.5356441052       -0.7181332020      -14.4730282536
 C         9.1823845270       -0.6196559441      -12.0146005518
 C         8.3434837821        0.7989352360      -11.9586920735
 O         7.3326259131        1.0127242348      -11.3573584234
 C         8.9082386931        1.9215257323      -12.8057733798
 C         7.7871596388        2.9464759943      -13.0224772617
 C         6.5510382100        2.2037951217      -13.5016116119
 O         6.6378023638        1.0560136484      -13.8848415437
 C         5.2041284372        2.8406115764      -13.6009495531
 C         4.1751969785        1.8533830047      -14.2505042831
 O         3.4906450988        2.3471798699      -15.1476631158
 C         3.8977099777        0.4219716769      -13.8219518121
 C         2.9695005854       -0.4663180301      -14.7398736798
 C         3.6034426811       -0.8189292216      -16.1174256814
 O         4.7732035879       -0.6846644712      -16.3393890649
 C         2.6458800159       -1.1321663715      -17.3019375864
 C         3.4424230756       -0.9161579876      -18.7511465648
 O         3.5475337509       -1.8628893145      -19.4844465445
 C         4.0033539256        0.5169114253      -19.0015133831
 C         5.2854990966        0.3504183979      -19.7944601843
 C         6.5163492046        0.0509854524      -18.9246597938
 O         6.7263531962        0.6871918051      -17.9115894156
 C         7.5250716270       -1.1153554747      -19.4314224014
 C         7.1622594262       -2.3256617721      -18.6779129556
 O         6.8620473881       -2.2556904151      -17.4632502726
 C         7.1231796247       -3.6891337442      -19.2177530442
 C         7.6080036521       -1.3266804885      -20.8942897558
 C         8.9190199685       -0.5407127523      -18.9305417624
 C         2.0863941649       -2.5292715506      -17.1423332918
 C         1.4606098468       -0.1867250406      -17.4013375551
 C         4.7884214243        3.1418500639      -12.0166302843
 C         5.1597394958        4.2201831907      -14.3980389923
 C         8.6974531804       -1.5939179469      -10.8620938709
 C        10.7798156184       -0.2954844976      -12.0319075675
 C         7.7639154678       -5.2778392192      -12.0406976940
 C         6.6456902564       -6.2149389453      -14.0916627990
 C        -0.0292025783       -5.9816667667      -11.9041408978
 C        -0.9971636320       -6.1114076419      -14.2870053617
 C        -2.3973071514        1.1507354625      -12.7817705399
 C        -3.2712944824        0.6969525867      -10.3221524837
 C        -9.6642248142        0.9783425405      -11.5344480685
 C        -8.6413186067        3.1573516203      -11.2098573540
 C        -6.0262838798        0.3864716892       -5.0659125928
 C        -7.5705052826       -0.9621921092       -6.5917661431
 C       -11.6826610132       -1.4369561828       -0.3574460524
 C       -11.4494960841       -3.8053856464       -0.7499289205
 C       -17.7088646788       -2.2194979486       -5.3348207563
 C       -19.0935619770       -0.9667669431       -3.5450980342
 C       -20.0954400483       -7.1762039792        0.2499312255
 C       -20.3254941537       -5.3524002211        1.7757219176
 H       -18.5296441930       -6.8676433963        3.1758159011
 H       -16.7336705689       -7.1321264201        2.9106728995
 H       -17.8429887503       -8.2286949161        2.4279080513
 H       -20.9306866807       -5.4726224003       -1.8060164535
 H       -19.2766051720       -5.9468861057       -2.2026069591
 H       -20.2410408575       -3.0874028309       -2.1917443476
 H       -20.3176555275       -4.1079035815       -3.7324461318
 H       -15.0947695697       -1.6022082894       -4.3044576456
 H       -15.2958129178       -2.9296375350       -3.1746529653
 H       -14.8877574604       -0.8000224358       -1.3609526278
 H       -13.6575049125       -0.6567499593       -2.6467938847
 H        -9.3248312028       -1.7310717548       -1.8822685310
 H       -10.3465960767       -0.4015120985       -2.1808699690
 H        -9.9251784176       -1.3671844192       -4.7861769707
 H        -8.3564232252       -1.8128989542       -3.9761887147
 H        -6.2062038342        1.7924682931       -7.4435022625
 H        -7.0612231071        3.1935459180       -6.8334270838
 H        -7.2511092088        3.1602416189       -9.2936622251
 H        -8.8456914809        3.0509414563       -8.3142335125
 H        -7.2331369664       -0.2770420016      -13.2226680507
 H        -7.8532245162       -0.8156919442      -11.7759279518
 H        -5.6198560319       -1.8075988592      -12.2421633698
 H        -5.5065590056       -1.0980178953      -10.6972606529
 H        -0.7261698995       -1.4559271371      -13.1475789254
 H        -2.4327280082       -1.6415361667      -13.7182837467
 H        -2.1597106235       -4.0725052269      -13.0604337537
 H        -1.2152087278       -3.5448006468      -11.6272930504
 H         3.2619074041       -6.4887428371      -12.8461251799
 H         2.5335989949       -5.1097890312      -11.9575892944
 H         3.7842912838       -3.6363462371      -13.3538567410
 H         3.9701509771       -4.7116347404      -14.4558174147
 H         8.1529727373       -3.0355773920      -15.4589951700
 H         8.9516711377       -4.5753286810      -14.6828616416
 H        10.4427257369       -2.7107856728      -14.1461211261
 H         9.5317601723       -3.1602292453      -12.6380388574
 H         9.2380451723        1.6204545899      -13.7964613545
 H         9.6568955865        2.4587349331      -12.1291171071
 H         8.0118485575        3.6413482498      -13.8024614633
 H         7.5693662369        3.4116579221      -12.0211186590
 H         3.1816582076        0.8144647790      -13.0879453240
 H         4.6707161792       -0.0388682984      -13.2388074114
 H         2.0570619170        0.0007869221      -15.0343426848
 H         2.6887625464       -1.4173545815      -14.2612119196
 H         4.1272220091        0.8300219378      -17.9611862539
 H         3.3092757837        1.1135508930      -19.5701986758
 H         5.5938937702        1.2594708112      -20.3730536692
 H         5.0662411220       -0.4610838780      -20.5025441399
 H         6.0577917378       -3.9756211086      -19.4414026241
 H         7.3842435843       -4.3490327159      -18.4027588445
 H         7.8007185077       -3.9786053529      -20.0119619288
 H         7.9700020635       -2.3623818071      -21.1292275121
 H         8.2671088910       -0.6207083962      -21.5126843712
 H         6.6899839282       -1.1745942503      -21.2973381985
 H         9.7270855053       -1.3258864497      -18.9646130767
 H         8.8031248329       -0.1385014033      -17.8900146042
 H         9.2268374463        0.2989129215      -19.5918544117
 H         2.7865013829       -3.1040305087      -17.7858353294
 H         1.1317674135       -2.7342448577      -17.6060228220
 H         2.1250297803       -2.8933606115      -16.1152460677
 H         1.7641820131        0.8300041506      -17.2792426448
 H         0.7525710109       -0.3107845846      -16.5832159685
 H         1.0036319401       -0.2909034767      -18.3309911310
 H         5.5726425586        2.8467619758      -11.3077799063
 H         3.9794692631        2.5715423580      -11.6354529903
 H         4.7337785703        4.2372757431      -11.9456374321
 H         5.6363541688        4.9036761592      -13.8014679035
 H         4.1075241795        4.5281237068      -14.4870245223
 H         5.7290563865        4.3205280423      -15.2632866818
 H         8.4163285545       -0.9808248683       -9.9660023435
 H         9.3672313891       -2.3623955145      -10.5636715032
 H         7.8509868794       -2.1796723643      -11.0760729040
 H        10.9403535861        0.2672500750      -12.9890438232
 H        11.2521991923       -1.2076292233      -11.9333220054
 H        10.8251122497        0.3339382993      -11.2128359246
 H         7.4164340223       -5.9155296147      -11.2287400438
 H         7.9843336483       -4.3376972699      -11.5400670834
 H         8.7426567853       -5.7050428035      -12.3810222130
 H         6.4495475663       -7.1872840716      -13.6149089168
 H         7.6182754974       -6.2272694805      -14.5528983127
 H         5.8555296948       -6.1038428083      -14.7794665927
 H         0.5917864955       -5.5029440196      -11.1860306599
 H         0.2244645867       -7.0439810584      -11.8421679448
 H        -1.0264267234       -6.0447406523      -11.5353696735
 H        -0.6329032984       -7.0898412431      -14.4628400422
 H        -1.2420265758       -5.6738184534      -15.2223410754
 H        -1.8844784800       -6.1890458010      -13.7674975961
 H        -1.2698105279        1.2394446570      -12.5392853499
 H        -2.8055474029        2.1455624773      -12.8264078659
 H        -2.4378916377        0.6526995070      -13.7595842003
 H        -3.2005066037       -0.0728309216       -9.5483415438
 H        -4.1966590876        1.1594946469      -10.1622387160
 H        -2.5631769090        1.4196590178       -9.9438914922
 H        -9.7581751003       -0.0804745085      -11.4778404677
 H        -9.9356632289        1.2117647254      -12.5099907690
 H       -10.4852161297        1.2668523199      -10.8440483268
 H        -9.5795871072        3.5207707425      -10.8290464602
 H        -8.6896314184        3.3556901275      -12.2591569222
 H        -7.9002007222        3.9082007716      -10.8926687493
 H        -5.8278850429       -0.3780267515       -4.2760086796
 H        -5.7254802467        1.3617224772       -4.8022044766
 H        -5.4643326528       -0.0389590681       -5.8285544095
 H        -7.0187727203       -1.8331600044       -6.1655521226
 H        -7.1157261946       -0.6662886096       -7.5471472073
 H        -8.5629823816       -1.2843622481       -6.8601203375
 H       -12.1270947459       -1.5218053045        0.5779001420
 H       -11.9217911281       -0.5186993813       -0.8273933975
 H       -10.5694676260       -1.5019924947       -0.1803683444
 H       -10.4130291339       -3.7815489663       -0.5017583722
 H       -11.5492339939       -4.6450328193       -1.4350503217
 H       -11.8766092445       -4.0168883520        0.2309642358
 H       -18.6444197542       -2.5017686300       -5.7469319083
 H       -17.0013709056       -3.0807961176       -5.4796736883
 H       -17.2739407228       -1.3263635377       -5.7096650384
 H       -19.0529749203       -0.4358056055       -2.6559223990
 H       -20.1278910753       -1.3288600156       -3.5785061743
 H       -18.9635158841       -0.2076381385       -4.3506862104
 H       -19.5213234018       -7.5686711333       -0.6007224429
 H       -21.2407730712       -7.0292095719        0.1069571628
 H       -19.9473146554       -7.8440907696        1.0788438862
 H       -20.4996845350       -6.0300616986        2.6397327357
 H       -21.3251433303       -5.1494655033        1.3192734442
 H       -20.0269498394       -4.4310520183        2.2361585145
 Na      -16.4475292861       -4.1038128184       -0.8823588901
 Na        6.6310234893       -0.6830107858      -15.4815535453
