232

 C       -17.9395633789       -7.2561130827        2.5898007335
 C       -17.9512277021       -6.4045985300        1.2615959190
 O       -16.9893177698       -5.9481979353        0.7695366217
 C       -19.3520902931       -5.9503879683        0.6813588363
 C       -19.2411295619       -4.8737170652       -0.4794185927
 O       -18.7347852201       -3.8364554392       -0.1563031585
 C       -19.7175290638       -5.1323654401       -1.8455643837
 C       -19.7184794193       -3.8016692994       -2.7267702976
 C       -18.3506666014       -3.4255256099       -3.1169229717
 O       -17.5387186773       -4.3583912174       -3.1987099897
 C       -17.9317064202       -2.0246200337       -3.5795077804
 C       -16.7897648123       -1.5417271160       -2.7203690171
 O       -16.9348469137       -0.9164060076       -1.6639208966
 C       -15.3544922025       -1.9281245948       -3.1728499870
 C       -14.3003212773       -1.3732060710       -2.1302540180
 C       -13.5292354938       -2.5574687041       -1.5161689884
 O       -14.0774159885       -3.5670445252       -1.0654936650
 C       -11.9896620065       -2.4154533988       -1.3835013826
 C       -11.2245590729       -2.1044409674       -2.6745817424
 O       -11.5978222727       -2.5990956309       -3.7157741297
 C        -9.9694437556       -1.0899259479       -2.7649610926
 C        -9.3294006169       -1.1611740598       -4.1324367255
 C        -8.5796458398        0.1412511928       -4.3657828992
 O        -8.6990551518        1.0270053925       -3.5713985191
 C        -7.6120144019        0.2598417188       -5.5624790257
 C        -8.2246695830        1.4109857232       -6.5155908830
 O        -9.4095976086        1.5871286774       -6.5205687752
 C        -7.1970239730        2.3204859999       -7.3604144303
 C        -7.8663424879        2.6488709382       -8.7329058886
 C        -8.3473362908        1.4752563005       -9.5570641095
 O        -8.4625026826        0.3176589529       -9.1735494307
 C        -8.5091260699        1.6548932717      -11.2033390206
 C        -7.1025810795        1.1040474515      -11.6886796270
 O        -6.2263619759        1.8650827175      -11.3198986160
 C        -6.7690007366       -0.2875579371      -12.3681736479
 C        -5.4451775867       -0.9254234671      -12.0326167193
 C        -4.2871721938       -0.2336845412      -12.7193715119
 O        -4.3332798942       -0.2357476429      -13.9636314460
 C        -3.0947567539        0.2478494381      -11.8100684582
 C        -2.2843482422       -1.0670427188      -11.6832721327
 O        -2.2774800203       -1.7079583633      -10.6692639591
 C        -1.4844679260       -1.6552825875      -12.9440186112
 C        -1.1436254162       -3.1055526238      -12.5177492400
 C        -0.0204051168       -3.7582710431      -13.3235209500
 O         0.8399171783       -3.1029255222      -13.8967339961
 C         0.0917631689       -5.3492406357      -13.2812750944
 C         1.5855182404       -5.5591174666      -13.7770417990
 O         1.8532922877       -5.8723086160      -14.9429058205
 C         2.6936376162       -5.4853760820      -12.8350344419
 C         3.9733717036       -4.7932482662      -13.5059256079
 C         5.0955968269       -5.0849201994      -12.5862569744
 O         4.9304061611       -5.1459780266      -11.4170309068
 C         6.5394846405       -5.0529491117      -13.1914995023
 C         6.9510607881       -3.6930688373      -13.9254431102
 O         6.2908416918       -2.6862273734      -13.8708540046
 C         8.4326459472       -3.6355632724      -14.4970228672
 C         9.2725055270       -2.8569502082      -13.5061572942
 C         9.0112846319       -1.3712865388      -13.5575379477
 O         8.9987664671       -0.7187240803      -14.6080052889
 C         9.0368929493       -0.5358494570      -12.1163925517
 C         8.2517714714        0.7857369697      -12.0988551528
 O         7.3763022356        0.9399629440      -11.2553619411
 C         8.8683027806        2.0692582959      -12.8234142395
 C         7.7342005731        3.0207601730      -13.3274210339
 C         6.4975595889        2.1835430978      -13.7800576520
 O         6.8013202008        1.2028596141      -14.4369467546
 C         5.0285458123        2.7170877475      -13.3642802159
 C         4.0625762641        1.8995527967      -14.2919194724
 O         3.3664030178        2.3341221933      -15.2149390492
 C         3.7408726447        0.4321422488      -13.8522495783
 C         2.7618882366       -0.3199797634      -14.6883771096
 C         3.2156963485       -0.6359777918      -16.1137331537
 O         4.4342187216       -0.5694985153      -16.2842004295
 C         2.5194874126       -1.0575992662      -17.3589126898
 C         3.5355804198       -1.0197792492      -18.6114870339
 O         3.7648596531       -1.9775534949      -19.3587311174
 C         4.1014663007        0.4026393257      -19.0699206496
 C         5.4391288699        0.2890674878      -19.8513160534
 C         6.5836633391       -0.0853431066      -18.8840694573
 O         6.6734658160        0.4295681729      -17.8134069199
 C         7.6553769581       -1.2268838621      -19.2563856192
 C         7.1393481944       -2.3365036498      -18.4758579991
 O         7.0872917944       -2.3695024190      -17.2763422039
 C         6.7326811631       -3.6406012255      -19.1088987786
 C         7.7386183133       -1.3580027964      -20.7481718399
 C         9.0802918423       -0.8858364120      -18.7786021516
 C         2.0852468143       -2.5583039183      -17.2628077676
 C         1.2490049715       -0.1489439631      -17.6327542985
 C         4.7478276610        2.6035838674      -11.8816088719
 C         5.0800948957        4.2218950400      -13.7964625361
 C         8.4849418257       -1.3460293677      -10.9074393462
 C        10.6150432611       -0.2363094914      -11.8676037869
 C         7.4981972318       -5.2848931905      -12.0274330943
 C         6.6503698947       -6.2259818516      -14.2488512673
 C        -0.0651998783       -5.9739835924      -11.9299694870
 C        -0.8409560756       -5.8742924515      -14.2997934184
 C        -2.3329934032        1.3567260026      -12.5281808039
 C        -3.5242457143        0.7312357496      -10.4383605539
 C        -9.6992835551        0.8096752339      -11.6421223368
 C        -8.6333962503        3.0948983289      -11.6377749806
 C        -6.1841334928        0.6948387415       -5.0493837325
 C        -7.6471208874       -1.0587520645       -6.3533598499
 C       -11.6370812923       -1.2601767952       -0.3150960531
 C       -11.4731091991       -3.7966948180       -0.9548346930
 C       -17.4044629802       -2.0379544642       -5.0461450190
 C       -19.0789117696       -1.0006274063       -3.6311945706
 C       -19.9303229008       -7.3519827484        0.2699237290
 C       -20.1424582628       -5.2122298479        1.7649587699
 H       -18.6530426375       -6.8690386257        3.2812189455
 H       -16.8959630266       -7.3792026006        2.8953270257
 H       -18.1855228953       -8.3360910723        2.5560268226
 H       -20.8276340252       -5.4049141940       -1.7819445744
 H       -19.1682259402       -5.9167641741       -2.3694313605
 H       -20.2215499705       -3.0270711677       -2.1279970991
 H       -20.3242543435       -4.3002884844       -3.4907346095
 H       -15.3353917511       -1.4820760038       -4.1422287234
 H       -15.3345303278       -3.0039416129       -3.3759510641
 H       -14.9122996116       -0.7866241866       -1.4390699672
 H       -13.7088767820       -0.6811087385       -2.7659353803
 H        -9.2565240829       -1.0859901731       -1.9857354417
 H       -10.4633494405       -0.1009873723       -2.6631858991
 H       -10.0971856475       -1.2935930947       -4.8548436172
 H        -8.6247842563       -2.0232759753       -4.1314077347
 H        -6.1171484732        2.0788594085       -7.4400586072
 H        -7.2164613504        3.2724239083       -6.7912881538
 H        -7.1842302477        3.1167062771       -9.4187926909
 H        -8.7061722524        3.2356231971       -8.5639035698
 H        -6.9958089163       -0.0595504054      -13.3942574109
 H        -7.5860362595       -1.0149179381      -12.1823976846
 H        -5.5434525073       -2.0616346168      -12.1672281811
 H        -5.2891393540       -0.9004100620      -10.9492790421
 H        -0.6334619617       -0.9676541345      -12.9921474317
 H        -1.9445304872       -1.7222852827      -13.9144244142
 H        -2.1386166966       -3.5672954428      -12.6095956011
 H        -0.8278991607       -3.0805236277      -11.4024111681
 H         3.0098812796       -6.4880082084      -12.5352586263
 H         2.5146528472       -4.7903831640      -12.0017781326
 H         3.6760105505       -3.7014133374      -13.6974904698
 H         4.0135328464       -5.0037675326      -14.6498886743
 H         8.4785854221       -3.1265070487      -15.4713204225
 H         8.7953123371       -4.6226612150      -14.4838518105
 H        10.2871179526       -3.0550297636      -13.7249712595
 H         9.1442702511       -3.2086499941      -12.4703768950
 H         9.3439739650        1.7712320125      -13.7738129354
 H         9.4687718442        2.6017384080      -12.1252797992
 H         8.0317085936        3.4264483225      -14.3006529307
 H         7.4939739655        3.7722358397      -12.5997251975
 H         3.4910563733        0.3066837694      -12.8025326396
 H         4.7114024501       -0.1052644046      -13.9584447642
 H         1.6884767711       -0.0142208023      -14.8401620003
 H         2.6206420647       -1.2227491233      -14.1008055958
 H         4.1686483848        1.0996170882      -18.2203092976
 H         3.3788678489        0.8225115113      -19.8551868864
 H         5.6254130947        1.2697761775      -20.2756185386
 H         5.3498870246       -0.4122358190      -20.6944973793
 H         5.7826799881       -3.6043057145      -19.5854272117
 H         6.7078246319       -4.4636780500      -18.3762436495
 H         7.4530780332       -3.8995027796      -19.8369309270
 H         8.6925431211       -1.5899031333      -21.1233558118
 H         7.5600306725       -0.4271589046      -21.1984378092
 H         6.9673810171       -2.0692358366      -21.2196797668
 H         9.7655264747       -1.4913233496      -19.3063608584
 H         9.1532324788       -0.9938375090      -17.7137218651
 H         9.3111941925        0.1506640799      -18.9771362928
 H         2.5632603956       -3.1786643399      -18.0214566024
 H         0.9785367622       -2.6614752103      -17.4064485880
 H         2.2844164967       -2.9232915237      -16.2603542749
 H         1.6305725647        0.8706913381      -17.8238585556
 H         0.5422099419       -0.0668879991      -16.8084797988
 H         0.6808670841       -0.5451315221      -18.5489837125
 H         4.8966533182        1.6085761669      -11.5301385007
 H         3.6788020064        2.6793728206      -11.6598709516
 H         5.3045703060        3.3614707321      -11.3572476737
 H         6.0007795855        4.7708126681      -13.4047277718
 H         4.2353103793        4.7999232876      -13.4787786388
 H         5.1892682746        4.2663975455      -14.9046899905
 H         8.5227160479       -0.7604361602       -9.9979937849
 H         9.0191947331       -2.2989062480      -10.6634991872
 H         7.4205650568       -1.7504930587      -10.9155363924
 H        10.8555159379        0.3137591918      -12.7277082881
 H        11.0980822177       -1.2517370454      -11.8057088205
 H        10.6733486328        0.2554881166      -10.8524903180
 H         7.2662366753       -6.1916309373      -11.4576122024
 H         7.5687879088       -4.4351578767      -11.3595946841
 H         8.4482695656       -5.4517342539      -12.4055087774
 H         6.5275056419       -7.1847858530      -13.7339284314
 H         7.6715408665       -6.2198325444      -14.7160859856
 H         5.7484059897       -6.2665473516      -14.9595962912
 H         0.7371511549       -5.7802645857      -11.1807943324
 H        -0.0807494018       -7.0595293105      -11.9208638133
 H        -1.0152263041       -5.6952039639      -11.4283432629
 H        -0.9544939497       -6.9426550081      -14.2303201940
 H        -0.5536302212       -5.7085565476      -15.3435143695
 H        -1.8260809050       -5.3262984430      -14.1949025089
 H        -1.6865137984        1.9457525591      -11.9713903886
 H        -3.1355858780        2.0231993566      -12.9022424516
 H        -1.8601261703        0.9879936729      -13.4343985200
 H        -3.8679391872       -0.0182819398       -9.7497993494
 H        -4.3895282108        1.4794246428      -10.4752132686
 H        -2.7600296686        1.2244148936       -9.8641466211
 H        -9.5518602331       -0.2828290874      -11.4787606430
 H        -9.8381121420        0.9027289206      -12.7603670116
 H       -10.6479070825        0.9991949924      -11.2500110922
 H        -9.0446920958        3.7544875377      -10.8765357143
 H        -9.1764219336        3.2472881082      -12.5760793796
 H        -7.7220892813        3.5753671338      -11.8743086475
 H        -5.7743069592       -0.0862599848       -4.4514918480
 H        -6.3617192439        1.6035878270       -4.4361073931
 H        -5.4190301295        0.8172282605       -5.8677662981
 H        -7.3260834741       -1.9171967983       -5.8004341192
 H        -6.8426304183       -0.9754586957       -7.1166680663
 H        -8.5488752940       -1.2121190395       -6.9184943863
 H       -12.2755886388       -1.4990080981        0.5545391458
 H       -11.8885662050       -0.2887606144       -0.7382738736
 H       -10.6163704094       -1.3000614274        0.0446484751
 H       -10.3350371606       -3.8006230961       -0.8185946685
 H       -11.5829119334       -4.4792592744       -1.7869115783
 H       -11.7465192006       -4.1566993438        0.0493137224
 H       -18.2786914360       -2.0677537378       -5.7683567292
 H       -16.7690461548       -2.9011133577       -5.1897030408
 H       -16.7888047409       -1.1286077164       -5.0897015793
 H       -19.7413350854       -1.0896740551       -2.7583983090
 H       -19.7590983596       -1.1755423121       -4.4441213531
 H       -18.7597032470        0.0282528645       -3.6615416170
 H       -19.2031421338       -7.9152787591       -0.2696672738
 H       -20.8245142632       -7.2064234748       -0.1489660137
 H       -20.2253183884       -7.8564852442        1.2085796442
 H       -20.5558489814       -5.8901464064        2.5145697704
 H       -20.9939408879       -4.6262068073        1.4677726383
 H       -19.4603977052       -4.5575948106        2.3498958009
 Na      -16.3887818491       -4.2268135150       -0.8937254218
 Na        6.7285261167       -1.0807852601      -15.4801506315
