232

 C       -13.0640512839      -17.5403907578       -3.4080883167
 C       -13.8886864465      -16.3465929210       -3.8961982564
 O       -13.3182835793      -15.3159360231       -4.1298285163
 C       -15.4441298180      -16.6407610007       -4.1115384678
 C       -15.9966062020      -15.5032563648       -5.1249171448
 O       -15.9846636884      -14.3055804017       -4.7765402035
 C       -16.6120204506      -15.9668396469       -6.4879514062
 C       -16.7731180026      -14.7241761370       -7.4442751437
 C       -15.4435047651      -14.0459183755       -7.9076610054
 O       -14.3817971205      -14.5667116419       -7.6446616487
 C       -15.4864039884      -12.7343473894       -8.6036950115
 C       -15.9116092891      -11.6335091621       -7.5159612664
 O       -16.6824725129      -12.0293837635       -6.6930171899
 C       -15.3930414084      -10.1916369052       -7.5515333689
 C       -15.6586100245       -9.5572244639       -6.1798582619
 C       -14.4863424882       -9.8589946433       -5.2480994107
 O       -14.0420059788      -11.0297367898       -5.1236620136
 C       -13.8192425949       -8.6597752000       -4.5134930095
 C       -13.0448048272       -7.8907592825       -5.6134151654
 O       -13.2354316123       -8.2765138117       -6.7556786228
 C       -12.1196760812       -6.8121831620       -5.3163210075
 C       -11.9883561658       -5.7387891612       -6.4211050143
 C       -13.0941197870       -4.6995074747       -6.3406715152
 O       -14.0182226776       -4.8309652970       -5.6034366401
 C       -12.8387313407       -3.4165771415       -7.2790519240
 C       -11.8336418658       -2.5391168535       -6.4839598167
 O       -11.0567891697       -3.0808394929       -5.7000059200
 C       -11.8588368497       -0.9533964425       -6.6796752271
 C       -10.3245202744       -0.5246567034       -6.6206710666
 C       -10.0830803507        0.7337555625       -5.7169281670
 O       -10.6398023462        1.7805140599       -6.0543891976
 C        -9.0918678103        0.7841547562       -4.5070212069
 C        -7.5370840808        0.3028911629       -4.9497636375
 O        -7.1533586366       -0.8510818948       -4.6476743517
 C        -6.5931623357        1.3177152545       -5.5988878190
 C        -6.9933387097        2.0304258792       -6.9292038221
 C        -6.2166569778        3.3363762502       -7.0265749599
 O        -6.0035735626        4.0076991170       -6.0503992733
 C        -6.0602271450        3.9723747303       -8.4477689830
 C        -5.1378888901        3.1682277243       -9.3529243552
 O        -5.5250640179        2.1635701659       -9.8866958408
 C        -3.5987388571        3.4448857363       -9.3550476610
 C        -2.8032062543        2.1936234983       -9.3786924723
 C        -1.6037562346        2.2856220052      -10.2881006003
 O        -1.6837705676        2.7814173355      -11.3964116798
 C        -0.0694641218        1.9652319942       -9.7321470422
 C         0.8553225911        2.1164760972      -11.1759953727
 O         1.4697892228        1.1967122840      -11.6302881139
 C         0.9884809894        3.5511444442      -11.7652298056
 C         2.2192293846        4.3065417602      -11.2363524738
 C         2.2358749171        5.7752277190      -11.8655839631
 O         1.3588437080        6.5258863794      -11.6435317659
 C         3.3443384474        6.1592823428      -12.9494588523
 C         3.6993862056        5.1769819496      -14.0124074169
 O         4.8154782986        4.6474545480      -14.1288747755
 C         2.6615523530        4.7190414857      -15.0157129398
 C         2.8018225457        5.2204832177      -16.4140642438
 C         3.8376253384        4.6208972417      -17.2326826684
 O         4.2916820397        3.5018052313      -16.9988316618
 C         4.3802259262        5.2907381897      -18.5120263492
 C         5.9240755698        5.2302057370      -18.5606208292
 O         6.6712455659        5.2230671010      -19.5186024529
 C         6.5736082112        5.4173279888      -17.1457243124
 C         8.0294895828        5.1072490098      -17.1321880261
 C         8.3028650343        3.6338060864      -17.1896537072
 O         7.5136262788        2.8407305630      -16.6236576340
 C         9.6425229322        3.1974903784      -17.7260519684
 C        10.7082537661        3.3802787930      -16.5279253697
 O        10.7359576403        4.4905780803      -16.0646231497
 C        11.6972973323        2.2842156346      -16.1061334109
 C        12.3494901971        2.3671669129      -14.7365781171
 C        11.2647764030        2.2534621110      -13.6376986865
 O        10.2753412811        1.6075854692      -13.7695826543
 C        11.5111465876        3.1422450883      -12.2478665970
 C        10.6253073571        2.5274081995      -11.1571440592
 O        11.1054605739        1.9150289145      -10.2515538858
 C         9.1490265676        2.8597353360      -11.4354569050
 C         8.3032810739        1.6531563011      -11.3659255772
 C         7.0905033726        1.5952611958      -12.3074187499
 O         7.0601892932        2.3657909199      -13.2425601032
 C         5.9955699572        0.3737592566      -12.2724416571
 C         5.9077542106       -0.1765841249      -13.7667946034
 O         5.1940369966        0.4646100749      -14.5213212565
 C         6.6604407403       -1.4580807998      -14.1221952840
 C         6.4490775691       -0.6666614643      -11.2235964388
 C         4.6349535456        1.0575193119      -11.8845117793
 C        12.9907643668        2.9501833062      -11.8237350579
 C        11.2409601438        4.6628636473      -12.5227653162
 C         9.4700570545        1.7742073458      -18.3206014078
 C        10.1846883958        4.1215200785      -18.8416640234
 C         4.0391117574        4.2651884295      -19.7988344379
 C         4.0957779164        6.7596942770      -18.8731443759
 C         2.8545514071        7.4454226865      -13.6613427525
 C         4.5408593404        6.5331164369      -12.0476890497
 C         0.1956388475        3.1866837477       -8.7896713895
 C         0.0903015590        0.5295574632       -8.9790632326
 C        -7.4017284648        4.1091577033       -9.1478242448
 C        -5.6420506580        5.4646044118       -8.3189546834
 C        -9.1246515553        2.2110999880       -3.9724459265
 C        -9.7790029012       -0.1935315835       -3.5296964337
 C       -11.9010964878       -3.7676524001       -8.5664020161
 C       -14.1456570341       -2.7540578245       -7.6744766904
 C       -14.8461130284       -7.7580222794       -3.9301116137
 C       -12.8065732346       -9.0968343739       -3.4807709495
 C       -14.1299997738      -12.3350037917       -9.2200204735
 C       -16.5947903417      -12.7254811810       -9.8259946454
 C       -15.7667197538      -18.0372825644       -4.6243688433
 C       -16.0049268882      -16.5357600819       -2.6166185390
 H       -13.3893476979      -18.4958173827       -3.7368953139
 H       -13.0679303953      -17.5680583745       -2.2993290002
 H       -11.9822708234      -17.4427282262       -3.6880487578
 H       -17.6041582393      -16.3667960999       -6.2513068660
 H       -16.0843615527      -16.7392679104       -7.0428519331
 H       -17.4124241521      -13.9660024315       -7.0768578400
 H       -17.2552902247      -15.0850477057       -8.3654200857
 H       -15.9457414966       -9.6149444867       -8.3669633831
 H       -14.3368978341      -10.1266238335       -7.8602256862
 H       -16.5010279216       -9.9846380500       -5.6917165485
 H       -15.6930479448       -8.4849985742       -6.2396287246
 H       -11.1526428198       -7.2222214700       -4.9815756206
 H       -12.4830396755       -6.2386251851       -4.4762221863
 H       -12.0921129091       -6.2669200729       -7.3626204691
 H       -10.8878531421       -5.4919754003       -6.4372547905
 H       -12.4286263689       -0.4571598170       -5.8497941064
 H       -12.3864686453       -0.6222065621       -7.5623242266
 H        -9.9923362327       -0.4029450266       -7.6322782086
 H        -9.7754294975       -1.4003528778       -6.1840646879
 H        -5.4853049070        1.0974229869       -5.6732666458
 H        -6.5671221949        2.2661617040       -4.9373214084
 H        -8.0474760034        2.2882287954       -6.9831222636
 H        -6.7982198944        1.4470106751       -7.8884708919
 H        -3.3494876663        4.1290187416       -8.5494130701
 H        -3.4780428615        4.0272077633      -10.3170372948
 H        -3.4815874144        1.3735397557       -9.8843223620
 H        -2.5248421977        2.1082335452       -8.3380783209
 H         0.2041719683        4.3419159040      -11.6555714806
 H         0.9856789015        3.3499867730      -12.8643472095
 H         3.2437727439        3.7460446400      -11.4379562797
 H         2.1709146061        4.4134516292      -10.1497938219
 H         1.6408191081        4.8261872663      -14.5788478500
 H         2.7107746959        3.6208090269      -15.0905300188
 H         2.9437295239        6.2680261336      -16.5068188035
 H         1.9737311049        5.0056625527      -17.0755930740
 H         6.1262535694        4.8057296051      -16.2982898734
 H         6.5196260410        6.4395499447      -16.6610238188
 H         8.6056636958        5.4739270676      -16.2999892490
 H         8.5562380751        5.6011321547      -18.0338619246
 H        12.4079647292        2.3442084913      -16.8812090084
 H        11.2244286939        1.3341983179      -16.1144589421
 H        12.9521671615        3.2042493323      -14.6343634027
 H        13.0997780698        1.5920123808      -14.5126378325
 H         9.0614885314        3.2810512853      -12.4693644785
 H         8.8750436393        3.8082705883      -10.9073388248
 H         8.0803537167        1.3536967992      -10.3320002461
 H         8.8864420198        0.7369203524      -11.5850097399
 H         6.1546618134       -2.3300611405      -13.7117857238
 H         7.7031070518       -1.3932765341      -13.8100684676
 H         6.5060724248       -1.6313033713      -15.2449630144
 H         5.7339632718       -1.5413152090      -11.3117423776
 H         6.2732228660       -0.3692953078      -10.1810696053
 H         7.4786844878       -0.9842224506      -11.1581545696
 H         4.0777834754        0.3403788177      -11.3305603097
 H         4.1746508905        1.3974007610      -12.7565199677
 H         4.7796539966        1.8660780409      -11.1638255493
 H        13.6763926608        3.1635966676      -12.6221653502
 H        13.1319427469        1.8961954204      -11.6377069722
 H        13.1066448508        3.5643734605      -10.9447012967
 H        12.1250030235        5.1935641639      -12.8769336552
 H        11.1817726417        5.1781323882      -11.5573639432
 H        10.4257525926        4.8961685471      -13.2026431285
 H         9.5085072339        0.8685466092      -17.6423604589
 H        10.2322307095        1.4893993641      -19.0863681806
 H         8.5114729036        1.8010737907      -18.9182154595
 H        10.4216409767        5.0544977724      -18.4239135581
 H         9.5684281746        4.2516851409      -19.6616878273
 H        11.0960920751        3.5394545620      -19.1868371466
 H         4.6474932200        4.5341848652      -20.6361471542
 H         3.0408999226        4.4471214747      -20.2303317332
 H         4.1261142034        3.2205046875      -19.4748076031
 H         4.1718007728        6.7334188168      -19.9865600279
 H         4.7678043160        7.4870181771      -18.4431811505
 H         3.0473011756        6.9714079794      -18.5787137281
 H         2.0618292959        7.8515468295      -13.0165289453
 H         2.4745889491        7.1255687763      -14.6855969963
 H         3.6152018861        8.1790474846      -13.8245061931
 H         5.3723894112        7.0639312015      -12.5717049056
 H         5.0938734910        5.8912832473      -11.4317455200
 H         4.2798302448        7.2653599526      -11.3629299281
 H         1.2271216716        3.0103906451       -8.3876979675
 H        -0.5043899773        3.2422020501       -7.9394414533
 H        -0.0701217681        4.1412225425       -9.2576960194
 H        -0.5269878513        0.7160686653       -8.0919051844
 H         1.1727385983        0.2803950244       -8.8484408434
 H        -0.3588320534       -0.3236437887       -9.5482108514
 H        -7.9076773264        3.1526551191       -9.5320829141
 H        -7.1627522328        4.6370457528      -10.0320532965
 H        -8.1714641103        4.6506247490       -8.5287403938
 H        -5.4070824185        5.8204866799       -9.3259038267
 H        -4.7815511280        5.6342946611       -7.7171815695
 H        -6.4534554086        6.0763154104       -7.8553828768
 H       -10.1795530556        2.4269499009       -3.6753372546
 H        -8.7460351594        2.8983371473       -4.7104217816
 H        -8.5207957421        2.3414779263       -3.1358820213
 H        -9.4037874386       -0.2317384551       -2.5142502690
 H        -9.6117841541       -1.1889865037       -3.9826526294
 H       -10.7937669697        0.1084665451       -3.4197703301
 H       -11.4021896595       -2.9139822072       -8.9636871949
 H       -12.5715730317       -4.1690140553       -9.3580496887
 H       -11.1344846437       -4.4452115357       -8.1798301765
 H       -14.5665507907       -3.0225761563       -8.6422318596
 H       -13.9896584534       -1.6432676429       -7.5969014774
 H       -14.8005424585       -3.1485364702       -6.8494514486
 H       -15.6242750997       -7.3494646471       -4.5578780139
 H       -14.3492638843       -6.8510958332       -3.4729357648
 H       -15.4446787004       -8.1238110827       -3.0452296357
 H       -11.9181497119       -9.5104413190       -4.0092545546
 H       -13.1779016588       -9.9122931303       -2.9297786231
 H       -12.6011449807       -8.2712623273       -2.7980267692
 H       -13.3235751383      -12.2010943632       -8.4129458582
 H       -14.2246870666      -11.3826532576       -9.7829122078
 H       -13.8515805535      -13.1561228148       -9.9471250148
 H       -16.0641410013      -12.6314040941      -10.7068780678
 H       -17.3881587120      -12.1036053002       -9.5961947042
 H       -17.0545553375      -13.7114891177      -10.0328052749
 H       -15.2094073641      -18.2696549380       -5.4997659129
 H       -16.8372212741      -18.0384177054       -4.7719461842
 H       -15.4099581501      -18.8686206593       -3.9533088685
 H       -15.7469191932      -15.5959437761       -2.1737844290
 H       -15.5622408305      -17.2672368727       -1.9067448649
 H       -17.0901451452      -16.7227425217       -2.5735280310
 Na      -14.1210730835      -13.3376390214       -5.4988046093
 Na        5.7067663992        2.7207274787      -15.0790942987
