232

 C       -18.3417922746      -13.2396866121       -0.5287454157
 C       -17.3706786403      -13.3442468774       -1.6971931770
 O       -17.5446716455      -12.7195228782       -2.7179613874
 C       -16.1397187614      -14.3060102310       -1.3756655520
 C       -15.1724200017      -14.4982232707       -2.6638815077
 O       -15.6918719832      -14.7346942601       -3.7526108223
 C       -13.6647807197      -14.6520579833       -2.5205503074
 C       -12.9578802440      -14.6583142138       -3.9025025594
 C       -13.0888612915      -13.2909451778       -4.5260589731
 O       -13.2495775263      -12.2365680322       -3.7964622441
 C       -12.7921954201      -13.1032517722       -6.0356865109
 C       -14.1163038008      -12.5082259754       -6.6317800964
 O       -15.1679298936      -13.0662175745       -6.4912872458
 C       -14.0921941988      -11.1518908913       -7.3349754105
 C       -15.6016093333      -10.6407788799       -7.4262669113
 C       -15.7822517014       -9.8752265658       -6.0598678199
 O       -16.0743185030      -10.4293675929       -5.0351605672
 C       -15.7276988072       -8.3318263183       -6.0560743836
 C       -14.7376003562       -7.5154829390       -7.0612725704
 O       -14.0691446608       -8.2152634203       -7.7667811589
 C       -14.8439477105       -5.9656495624       -7.1371925207
 C       -13.5513559475       -5.2375030955       -7.5722891335
 C       -13.8618842431       -3.9187720424       -8.2426938021
 O       -15.0499213484       -3.5923528050       -8.4910300872
 C       -12.5814143835       -2.9895499617       -8.6254146967
 C       -11.6053626782       -2.7768687976       -7.3837383839
 O       -11.8976334192       -2.8610534456       -6.1986094957
 C       -10.1213047903       -2.5242290623       -7.8045341837
 C        -9.4177314632       -1.6348144727       -6.8067710879
 C        -9.5388499772       -0.1961698157       -7.2103798698
 O       -10.0254927189        0.1473157615       -8.2336321233
 C        -8.9195920626        1.1021468393       -6.3461162603
 C        -7.5486138605        1.3236579421       -7.0345220061
 O        -6.7287463230        0.3932908884       -7.0008929879
 C        -7.4673013937        2.5372670452       -7.9218207455
 C        -5.9457952601        2.6421010614       -8.3095785921
 C        -5.6960495882        3.2301485862       -9.7278208536
 O        -5.6440329251        4.4303019292       -9.9314305883
 C        -5.5110254135        2.3156763678      -10.9276946555
 C        -4.1467706962        1.5826938933      -10.5457938761
 O        -4.1119612067        0.4559938753      -10.0626995299
 C        -2.8014808550        2.3716728914      -10.6711982375
 C        -1.5759320620        1.7923573189       -9.9317792836
 C        -0.1881501036        2.4534095552      -10.1426353036
 O        -0.0238755282        3.5725573253      -10.6963227932
 C         1.1031363709        1.6381592747       -9.4872818903
 C         2.3122070564        2.5604767743       -9.5773396342
 O         3.0796105655        2.5211224216      -10.5496187340
 C         2.4374617298        3.6055389151       -8.5280598136
 C         3.7143695269        4.4515096815       -8.8173046033
 C         3.4127911472        5.4390462727       -9.9035101754
 O         2.3330662229        5.9635415800       -9.9560992122
 C         4.4449735753        5.8099897877      -11.0127137589
 C         4.2691717071        4.7152109333      -12.1607551721
 O         5.2078932745        3.9830983183      -12.4573204046
 C         2.8985644823        4.6923139032      -12.8768246351
 C         2.6045000025        5.7122314433      -14.1193972737
 C         3.1078072884        5.1318676516      -15.4477351222
 O         3.3556823480        3.9615790028      -15.5235119143
 C         3.3438288416        6.0036410558      -16.7153605525
 C         4.9430179404        5.9657411924      -16.9164762608
 O         5.3725670102        5.3221266236      -17.8245883926
 C         5.9234182683        6.8405161996      -16.0500460750
 C         7.3065846401        6.3211015580      -16.4061480916
 C         7.3619502953        4.7667831569      -16.4753559624
 O         6.6693738933        4.1563205449      -15.6942927086
 C         8.3715219255        3.9822912972      -17.4188093100
 C         9.6623455649        3.7700750200      -16.5717131628
 O         9.6800855130        4.3807493968      -15.5099898428
 C        10.8660969725        3.2003727433      -17.1175956138
 C        11.8612726026        2.8100084836      -16.0577479899
 C        11.9276509836        1.2339089885      -15.8169529288
 O        11.6464119849        0.5462036310      -16.7671440274
 C        12.2250142774        0.6237414991      -14.4020247971
 C        10.9154071338       -0.2301862698      -13.9506035644
 O        11.0804662187       -1.2656484179      -13.3304601425
 C         9.4963147609        0.4434831799      -14.1746484185
 C         8.3872154273       -0.3788815752      -13.5905271934
 C         7.1217412673        0.5404458399      -13.6306068161
 O         7.3011624353        1.7023349102      -13.9139589424
 C         5.8290784994       -0.0967953413      -13.1773445536
 C         4.6560670981       -0.2171601638      -14.3468809619
 O         4.3377964874        0.6984707812      -15.0222167153
 C         3.8369190690       -1.5148653927      -14.4197933102
 C         6.1304081399       -1.4648290222      -12.4350647356
 C         5.2960037127        0.8294447931      -12.0857645596
 C        13.4061235647       -0.3463053614      -14.5392169470
 C        12.5085995146        1.6670561596      -13.3361690369
 C         7.7098750787        2.6421899825      -17.8479888451
 C         8.7474263677        4.7524620357      -18.6624040709
 C         2.7003065629        5.3435633999      -18.0124718501
 C         2.7155915967        7.4083853637      -16.5570434658
 C         4.1231862551        7.2788720698      -11.3547984898
 C         5.8924355314        5.5331469030      -10.4978708143
 C         0.7244437259        1.3046395372       -8.0137459259
 C         1.3676971298        0.3053951930      -10.3813413896
 C        -6.7043544166        1.2395968563      -10.9858317602
 C        -5.4610275841        3.0680181347      -12.2651560962
 C        -9.9893670658        2.2866687453       -6.3777394287
 C        -8.7358571708        0.6314880791       -4.8400827503
 C       -11.7004134953       -3.4939805014       -9.8416485811
 C       -13.1949966970       -1.5905122535       -8.8643674605
 C       -17.2118599163       -7.8955744633       -6.3775775849
 C       -15.6022061316       -7.8692329691       -4.5441846848
 C       -11.5147804862      -12.4215918368       -6.3969641490
 C       -12.6966797538      -14.5414326632       -6.7968032728
 C       -15.3725893434      -13.8582560002       -0.1314954041
 C       -16.7712346793      -15.7366867065       -1.1218673056
 H       -19.2963891529      -13.4327848230       -0.9080830697
 H       -18.2405894587      -12.1820337395       -0.2079617496
 H       -18.0873382024      -13.8476226001        0.3700570236
 H       -13.4261824467      -15.5454016003       -1.9592729060
 H       -13.4803731523      -13.7728353803       -1.8350320645
 H       -13.3908578101      -15.4451614685       -4.5160355651
 H       -11.8702756444      -14.9141052685       -3.7224090566
 H       -13.7233401145      -11.2583622624       -8.3219533745
 H       -13.6251879787      -10.3682202619       -6.6829281378
 H       -16.3161814797      -11.5284550189       -7.5417478797
 H       -15.6531936071       -9.9899571669       -8.3942148891
 H       -14.9713701475       -5.5802256606       -6.1575090135
 H       -15.7205335016       -5.6737381810       -7.7211673335
 H       -12.9739399942       -5.8527344786       -8.2690369092
 H       -13.0037659560       -4.9976828756       -6.7154426715
 H       -10.0228698455       -2.0571704700       -8.7668586387
 H        -9.7285996072       -3.5274240915       -7.7246140659
 H        -8.3152253060       -1.7668229464       -6.6005893573
 H        -9.9132142232       -1.7151960577       -5.8839001931
 H        -7.9864597064        3.3770656299       -7.5853592022
 H        -7.8552580019        2.2680322839       -8.9234992612
 H        -5.5097966957        1.6348804828       -8.1787084284
 H        -5.4062353366        3.3607107245       -7.5782673503
 H        -2.8006079938        3.4218239428      -10.5089818786
 H        -2.3489427076        2.4578972259      -11.7254892377
 H        -1.5759840591        0.6202501001       -9.9315840316
 H        -1.7639864071        2.0996466998       -8.8517926177
 H         2.5759997130        3.1494439642       -7.4813869294
 H         1.4976813502        4.2453730568       -8.5042032933
 H         4.5181934328        3.7895660106       -9.1030396862
 H         3.9908152993        4.9005978937       -7.8519630078
 H         2.2063857617        4.9209262008      -12.0784283518
 H         2.7283401927        3.6381738178      -13.1528978048
 H         2.9549420896        6.6982437960      -14.0514845801
 H         1.5291805792        5.7993584385      -14.1192632440
 H         5.5854312092        6.8390058867      -15.0445090740
 H         5.6433824413        7.8428127000      -16.3866003295
 H         8.0506906340        6.7390114111      -15.6155214222
 H         7.5649735351        6.7809282443      -17.3511828784
 H        11.2143487846        3.8484937675      -17.8903042089
 H        10.6598949310        2.3566525221      -17.8032938534
 H        11.3954857220        3.1672392227      -15.1589327578
 H        12.9525039227        3.0967666441      -16.2254071318
 H         9.2616572947        0.6910357007      -15.1938118190
 H         9.5048307924        1.3989357023      -13.5370265539
 H         8.6269063253       -0.5485829683      -12.5724849698
 H         8.1093578018       -1.2436938632      -14.2031784023
 H         4.3250948652       -2.4063819121      -14.0563946175
 H         3.5069969323       -1.7244315365      -15.3784131037
 H         2.9844280469       -1.3054034571      -13.7780748813
 H         5.2068838343       -1.5791319840      -11.9229508947
 H         6.7378136737       -1.2442496252      -11.5351770499
 H         6.3777781478       -2.4484674792      -12.8391324664
 H         4.7941717102        1.6483813743      -12.5558435638
 H         6.1676225534        1.1753595553      -11.6001969312
 H         4.6713157691        0.3266261589      -11.3095767207
 H        14.3646807118        0.1041702910      -14.6099886901
 H        13.0987535902       -1.0069549297      -15.3088716624
 H        13.5598739529       -1.0155227365      -13.6695052595
 H        13.3356161957        2.2477214822      -13.7129103035
 H        12.8333988457        1.3235267859      -12.3711922542
 H        11.5801416746        2.2347907460      -13.2207376315
 H         7.3318813272        2.1606101778      -16.9932757378
 H         8.6134386546        2.0665401355      -18.2869518538
 H         7.1217830050        2.7032215651      -18.7693358322
 H         9.4236268848        5.6754656044      -18.4202118489
 H         7.8290339276        5.2687583772      -19.0680338747
 H         9.1913140876        4.2908505085      -19.4554577120
 H         1.6624507070        5.2121346473      -17.7801850742
 H         3.3258680616        4.4846275696      -18.4711385124
 H         2.8125556449        6.0945921184      -18.7419457183
 H         2.9230533197        7.9912896575      -17.5184467338
 H         3.2394527288        7.8965842585      -15.6843331258
 H         1.6909743490        7.4438035566      -16.2168249019
 H         4.1395858683        7.9529030593      -10.4679668999
 H         3.2226532962        7.4689931193      -11.8546466594
 H         4.9123504213        7.6565952650      -12.0191204828
 H         6.5107952459        5.4885682085      -11.3446848686
 H         5.8677300298        4.5380214933      -10.0972070604
 H         6.1089530330        6.3449752960       -9.7674725361
 H         0.4467292867        2.1247809166       -7.4587260724
 H         1.5014512557        0.7405256252       -7.4994195848
 H        -0.1173941210        0.5762157742       -8.0296128045
 H         0.3840826286       -0.2223728784      -10.5759217872
 H         1.9987536191       -0.3474915265       -9.8496756916
 H         1.6679461419        0.7454724990      -11.3287048531
 H        -6.6784061942        0.4868624248      -10.1569112092
 H        -6.6240113156        0.7239444519      -11.9368613722
 H        -7.7707265401        1.6196066307      -10.9190094106
 H        -5.7112168478        2.3914234488      -13.1148708666
 H        -4.4795043091        3.4458653364      -12.4103991852
 H        -6.0826979518        3.9336573148      -12.3378090743
 H       -10.7705661071        2.0598838369       -5.7202777721
 H       -10.2176529699        2.4021620599       -7.4102530701
 H        -9.5904979967        3.2890982739       -6.0271376685
 H        -8.4879067602        1.4958470632       -4.2443328550
 H        -7.9512261470       -0.1097487063       -4.7807949231
 H        -9.7013361125        0.4269741014       -4.5243020221
 H       -11.0109619813       -2.7043891045      -10.1522659476
 H       -12.3992336749       -3.6858196586      -10.6932815567
 H       -11.2260580453       -4.3721919915       -9.4264256488
 H       -13.9645956487       -1.6367754671       -9.6454578491
 H       -12.4218041302       -0.9070963657       -9.2125963008
 H       -13.8156352770       -1.2121940064       -8.0067915374
 H       -17.5140329269       -8.4184089431       -7.3027687144
 H       -17.3990228239       -6.8479676298       -6.4035188601
 H       -17.8770480428       -8.2930265366       -5.6203717378
 H       -14.5271097644       -8.1820476102       -4.2813727285
 H       -16.2152766060       -8.4752968359       -3.9558512255
 H       -15.8490863918       -6.8297572787       -4.3286102864
 H       -11.4467435268      -11.3383272231       -6.1921259880
 H       -11.2689705451      -12.4153485517       -7.4719686454
 H       -10.6085132649      -12.7556054104       -5.9220676946
 H       -13.5136517851      -15.2218373849       -6.6893673972
 H       -11.9030292867      -15.0739373907       -6.4462278211
 H       -12.6041102613      -14.4006941267       -7.9088130508
 H       -15.0786811523      -12.8081170122       -0.2540496161
 H       -14.4975926417      -14.4618275213        0.0934485605
 H       -16.0093254229      -13.7652670466        0.6493837632
 H       -17.3427830975      -16.1694527404       -1.8778360286
 H       -17.4106245402      -15.7277318611       -0.2624727906
 H       -15.9755575779      -16.4770467337       -0.9268092214
 Na      -16.2755717078      -12.6369678491       -4.6448367190
 Na        5.1882474470        2.7631933666      -14.7158005287
