232

 C       -17.9014857848       -7.2363026217        2.4416612774
 C       -17.8759585159       -6.2926898171        1.3150241844
 O       -16.8214893302       -5.7647502612        0.8852283031
 C       -19.3898622263       -5.9182184648        0.7186803037
 C       -19.1183097200       -4.9444458911       -0.4476725320
 O       -18.4838413234       -3.9094349911       -0.1748138355
 C       -19.7242688247       -5.1424370325       -1.8535528497
 C       -19.5645710974       -3.7898829074       -2.6278031409
 C       -18.2066430969       -3.4356166052       -3.1090108420
 O       -17.3268076997       -4.2774109234       -3.0203510770
 C       -17.9186011666       -2.0469655638       -3.5753305933
 C       -16.7420654096       -1.5343809770       -2.5599449863
 O       -17.1285725825       -0.9798892488       -1.5638388297
 C       -15.2949130429       -1.7664122844       -2.9518112428
 C       -14.1539432576       -1.4059471170       -2.0761922628
 C       -13.5155016168       -2.5491106294       -1.3881840291
 O       -14.1277774639       -3.4974590577       -0.9425070015
 C       -11.9676440224       -2.4506263274       -1.2619590105
 C       -11.3985213127       -2.0256354813       -2.7807706978
 O       -11.9436713830       -2.5359159493       -3.7455398311
 C       -10.2541030476       -1.0696205636       -2.7459179882
 C        -9.4892262069       -1.0867461889       -4.1196515615
 C        -8.6086802468        0.1638623376       -4.3554683709
 O        -8.5642782617        1.0977822954       -3.5312728718
 C        -7.6990295618        0.3368407122       -5.5705888707
 C        -8.3866920958        1.4185815318       -6.5619599477
 O        -9.5869240399        1.6303743330       -6.5301606812
 C        -7.3127516760        2.1359682393       -7.6008491099
 C        -7.9159910450        2.7534297041       -8.8737536140
 C        -8.4430281883        1.5204110937       -9.7862046270
 O        -8.3699478416        0.4306126948       -9.2187526459
 C        -8.4572223337        1.5691339438      -11.2810804242
 C        -7.0339620681        1.1480101195      -11.7956382379
 O        -6.0655937471        1.8107214517      -11.5564878914
 C        -6.9459381913       -0.2286527012      -12.5820732715
 C        -5.5563013937       -0.8529094565      -12.3163330627
 C        -4.2628882460       -0.1755514453      -12.8618745729
 O        -4.0500089791       -0.1404935063      -14.0311310609
 C        -3.0833107487        0.3027438312      -11.8416916129
 C        -2.2119759976       -0.9673790517      -11.6303783004
 O        -2.1852745761       -1.4066425010      -10.4500906741
 C        -1.2368958646       -1.4979636409      -12.6370539807
 C        -0.9783957846       -3.0034526326      -12.5011596401
 C         0.1228538484       -3.6406361639      -13.3355254217
 O         1.0442310936       -3.0271343857      -13.8056230459
 C         0.0581910855       -5.2522650100      -13.4448729722
 C         1.5246466122       -5.6980230963      -13.8477306477
 O         1.7571331296       -6.0621455846      -14.9950825584
 C         2.5779610893       -5.2816074939      -12.8826805075
 C         3.9762074133       -4.9993856120      -13.5473320455
 C         5.1446026082       -5.0316187899      -12.5741263881
 O         5.0328726290       -5.1273281612      -11.3466379497
 C         6.6569815465       -5.0937784134      -13.1625918129
 C         6.9819192853       -3.7300940153      -13.8648764304
 O         6.1036458209       -2.8938457866      -13.9994918632
 C         8.4827260101       -3.5453686370      -14.3924697679
 C         9.3863222923       -2.8371013632      -13.4180760334
 C         9.1863077535       -1.2554269555      -13.3923626031
 O         9.1643935193       -0.6221094838      -14.4193721991
 C         9.1817445703       -0.4982514955      -12.0721852844
 C         8.4402823149        0.8958482577      -12.1632510806
 O         7.4340197800        0.9670500352      -11.4685854928
 C         8.8474781714        1.9524471394      -13.1113797035
 C         7.6378161298        2.8949318080      -13.3532271160
 C         6.3828193830        2.1478106304      -14.0114503289
 O         6.4713708453        1.2934294147      -14.8642301008
 C         4.9213821938        2.5470315461      -13.4172959728
 C         3.8244619179        1.8468099526      -14.2412439384
 O         3.3528188849        2.3629634962      -15.1926813810
 C         3.4104967568        0.4084270839      -13.9980012237
 C         2.4324464420       -0.0602311122      -15.0665220479
 C         3.3174813261       -0.4906661579      -16.2970250460
 O         4.5240556903       -0.6833746993      -16.2897078717
 C         2.4230649271       -0.9741620619      -17.4606403901
 C         3.5768360602       -0.9955157440      -18.5497664498
 O         4.0171191742       -2.0216829000      -18.9912602565
 C         4.0771167986        0.3763467870      -18.9508118622
 C         5.4670237604        0.1687537394      -19.6515041216
 C         6.6128595273       -0.3110669803      -18.6816172130
 O         6.6825781126        0.2336301165      -17.5666897148
 C         7.6490653335       -1.3788018885      -19.0538149004
 C         7.1490431290       -2.6586094709      -18.5085486315
 O         7.3848770921       -2.9079018084      -17.2989288449
 C         6.3861973772       -3.6591162316      -19.2254100214
 C         7.8102630639       -1.4788829926      -20.6116380639
 C         8.9901546034       -0.9050285939      -18.4697598599
 C         1.9085067081       -2.4081332806      -17.1192533036
 C         1.2215926588       -0.0955144083      -17.8512753499
 C         4.9705617805        2.0282636119      -11.9621437395
 C         4.5914604622        4.0583672154      -13.5031994875
 C         8.4791594997       -1.3704466203      -11.0350241421
 C        10.6526497434       -0.2921588456      -11.6185398029
 C         7.6108341070       -5.5143064074      -12.0237850641
 C         6.6165353551       -6.2094885518      -14.2584405352
 C        -0.3060462790       -5.7557951445      -12.0364363614
 C        -0.9233332806       -5.6591517257      -14.4093915162
 C        -2.2977861725        1.4084122864      -12.5693956504
 C        -3.5014990008        0.9027251596      -10.4695720752
 C        -9.5535810360        0.6088666347      -11.7192863809
 C        -8.8316274580        2.9559639195      -11.9054150129
 C        -6.3623391800        0.8299364300       -5.0159191019
 C        -7.3396585662       -0.8992743632       -6.3937378731
 C       -11.8008084025       -1.4123086206       -0.1212252991
 C       -11.0964551311       -3.7098552973       -0.8396306356
 C       -17.4913323810       -2.1427102063       -5.0569219468
 C       -19.1013345073       -1.0821274496       -3.4471455170
 C       -20.1089627868       -7.1367294185        0.1659403423
 C       -20.2248841688       -5.3277237708        1.8223269813
 H       -18.5355300465       -6.8025923383        3.2571696585
 H       -16.8975961708       -7.5525134130        2.6971475079
 H       -18.3206237481       -8.1934427809        2.2537902598
 H       -20.7651986643       -5.2793272646       -1.7349194435
 H       -19.2906114986       -5.9967426583       -2.3946929666
 H       -19.9149301292       -3.0588011462       -1.8892195965
 H       -20.2170241020       -3.9355754495       -3.4629022124
 H       -15.2844526592       -1.3360392269       -3.9868628543
 H       -15.2258940273       -2.8282107936       -3.1440988602
 H       -14.4296363892       -0.6473684811       -1.3076111277
 H       -13.5092666281       -0.9682252075       -2.8116995260
 H        -9.7093208448       -1.2772353533       -1.7770620909
 H       -10.7275632777       -0.0960940710       -2.6861738829
 H       -10.2570385766       -1.0105482646       -4.9686080639
 H        -8.9447641639       -2.0354805562       -4.1935063165
 H        -6.6561446000        1.3362659644       -7.9086569984
 H        -6.6355427909        2.8059819012       -7.0838517488
 H        -7.1746522255        3.3957954940       -9.3713568647
 H        -8.8557722216        3.3233178389       -8.5776300219
 H        -7.3673774356       -0.2534427654      -13.6246343176
 H        -7.6446868188       -0.9020305495      -12.0766591069
 H        -5.6487730494       -1.7982893288      -12.7555712329
 H        -5.4068936781       -1.1846045290      -11.2812991713
 H        -0.3234086418       -0.8830842029      -12.6177524767
 H        -1.6872218024       -1.3176184881      -13.6449958571
 H        -1.9298258573       -3.4970091671      -12.5974820019
 H        -0.7067673862       -3.1089449083      -11.5123319708
 H         2.8030491943       -6.1782702749      -12.2713578612
 H         2.4001473254       -4.3908522969      -12.2605481434
 H         3.8505478160       -4.0007182125      -13.8601510897
 H         4.0333771815       -5.4577655002      -14.4807363118
 H         8.4853325850       -2.9670106655      -15.2883380593
 H         8.7825984587       -4.6143079397      -14.5795929153
 H        10.4889888861       -2.9349225212      -13.6363338111
 H         9.3981390151       -3.3820716585      -12.4555440845
 H         9.2314327909        1.5098939698      -14.0057436334
 H         9.6101722366        2.5983866125      -12.6397075647
 H         7.8113283626        3.7995490409      -14.0039159677
 H         7.2617789167        3.2139689599      -12.3414394261
 H         2.8277735967        0.4721455140      -13.0306687331
 H         4.3036695724       -0.1659236436      -13.7629385891
 H         1.5630080192        0.5717202242      -15.2863729891
 H         1.8824890932       -1.0271967530      -14.7723906365
 H         4.1384666040        1.1312905594      -18.1464339460
 H         3.3081877298        0.7315388031      -19.5933240072
 H         5.7096609087        1.0760201784      -20.2298276328
 H         5.4248447696       -0.6290443056      -20.3884989304
 H         5.5961585970       -3.2661775504      -19.9007591500
 H         5.8970858889       -4.2390358161      -18.4514417372
 H         7.0307056556       -4.3778279761      -19.8704401040
 H         8.7638643737       -1.9680283253      -20.9219186424
 H         7.9433609751       -0.4799658149      -21.0787272553
 H         7.0487051254       -2.0988180995      -21.1052083514
 H         9.7708040878       -1.6665777503      -18.5828488130
 H         8.8699200987       -0.5274546913      -17.4773253988
 H         9.3038963760       -0.0502748677      -19.0374221858
 H         2.4249409480       -3.1121690381      -17.7763580848
 H         0.8764517377       -2.5127438639      -17.2232156681
 H         2.1260011746       -2.7244027835      -16.0850525816
 H         1.4744221601        0.9667934867      -18.0415036313
 H         0.4892754184       -0.1742857683      -16.9981407170
 H         0.6694487779       -0.5254246266      -18.6439618380
 H         4.9228365678        0.9051449109      -12.1011821112
 H         4.1105992217        2.2178488467      -11.2918075688
 H         5.8396952864        2.4157061411      -11.4251086637
 H         5.2934333788        4.7308060336      -13.0034529770
 H         3.6073349042        4.2347775422      -13.0100463761
 H         4.4557772522        4.3405336026      -14.5755872561
 H         8.3751884415       -0.9730542858      -10.0060558127
 H         8.9195345324       -2.3492163752      -10.7671725274
 H         7.5031067179       -1.5946803626      -11.3486895532
 H        11.1527205069        0.2089154892      -12.4716735733
 H        11.0494357712       -1.2542285962      -11.3827177223
 H        10.5481373867        0.1537403374      -10.6572867257
 H         7.5874609710       -6.5790634833      -11.9004286260
 H         7.3825607152       -4.9683913791      -11.1028342740
 H         8.7244095641       -5.3322408372      -12.2148481482
 H         5.9993117535       -7.0784212246      -14.0211050627
 H         7.6186486232       -6.5479966758      -14.3929722453
 H         6.2131028339       -5.8628746191      -15.1483272494
 H        -0.0218145579       -5.2962960244      -11.1294997920
 H        -0.0517295098       -6.7974856154      -11.7591687251
 H        -1.3872616840       -5.7036687325      -12.0555509990
 H        -1.2669312754       -6.7472576446      -14.3507120436
 H        -0.5663853782       -5.5832375755      -15.4572289399
 H        -1.7467531326       -4.9424182355      -14.3468543109
 H        -1.4694127042        1.7995268556      -11.9153338534
 H        -2.9688726201        2.2480525183      -12.7395277228
 H        -1.9148961492        1.1792492630      -13.5571281597
 H        -4.3163716179        0.3430920959       -9.9665114315
 H        -3.9702844714        1.8133035117      -10.6078437559
 H        -2.7386386149        1.0914563589       -9.6850937126
 H        -9.7186841358       -0.1827813435      -11.0069452070
 H        -9.4995678828        0.1583323523      -12.6918912936
 H       -10.5788462651        1.1362423216      -11.8521906843
 H        -9.5670839703        3.5418966550      -11.3651387677
 H        -9.0625114216        2.8626406184      -12.9521334160
 H        -7.9802080553        3.6789270809      -11.9309187120
 H        -5.7546094443        0.0184609150       -4.5417593710
 H        -6.5410291564        1.6221116705       -4.2877787186
 H        -5.8449881070        1.2226274981       -5.8655668847
 H        -6.7631140469       -1.6342059791       -5.7999367863
 H        -6.7043476934       -0.7672172931       -7.2256100474
 H        -8.3107853648       -1.3216400097       -6.7588886923
 H       -12.1570719392       -1.8532367681        0.8263774632
 H       -12.3336252030       -0.4626267588       -0.3620237752
 H       -10.7538550441       -1.2133310478       -0.0071657690
 H       -10.0837678639       -3.6250750799       -0.7135366873
 H       -11.1604049212       -4.5292602937       -1.5644567887
 H       -11.4501502746       -4.0069531773        0.1122298083
 H       -18.2144329109       -2.7038584992       -5.5509516892
 H       -16.6138894635       -2.7507929897       -4.9700187759
 H       -17.3656986851       -1.1915442743       -5.6036002390
 H       -19.5121810046       -1.1930075875       -2.4014285038
 H       -19.9554691808       -1.2138675408       -4.1390476454
 H       -18.7890667132       -0.0472066577       -3.5536830288
 H       -19.3612048788       -7.6985132373       -0.4132048603
 H       -21.0990493567       -6.8505686650       -0.3383802099
 H       -20.4397618446       -7.7071366705        0.9869062023
 H       -20.4199681461       -6.0210492945        2.6056275909
 H       -21.2357078175       -5.1138430788        1.4923970506
 H       -19.8174788084       -4.4443489928        2.2696949486
 Na      -16.2797031152       -4.3461045860       -0.9135580108
 Na        6.8318520588       -0.8112404424      -15.5206734016
