232

 C       -17.7067076939       -7.3903771417        2.4105174600
 C       -17.9102836509       -6.2894413518        1.3599949849
 O       -16.8836270476       -5.7772069107        0.9519742114
 C       -19.3442751893       -5.9548200950        0.7038660854
 C       -19.0460403688       -4.8799014703       -0.3755854862
 O       -18.3623682896       -3.8956300409       -0.2030866349
 C       -19.7334583280       -5.0890066253       -1.7669723646
 C       -19.6027912222       -3.8925073897       -2.7325630628
 C       -18.2136088487       -3.4255565323       -3.0340219157
 O       -17.2582826017       -4.1771842372       -2.8084504842
 C       -17.9240092505       -1.9639031805       -3.5483831765
 C       -16.7479951863       -1.4700056962       -2.6573870550
 O       -16.9213699969       -1.0819174143       -1.5451674993
 C       -15.2249221298       -1.7057855600       -3.0273973121
 C       -14.4189464733       -1.5289223453       -1.6426903780
 C       -13.4627681065       -2.5948332723       -1.2800999878
 O       -13.9603460679       -3.6614911230       -0.8541238702
 C       -11.9315214023       -2.3699870583       -1.1676307734
 C       -11.5184588720       -1.9212300961       -2.6782865802
 O       -12.1612338402       -2.4234493777       -3.5474351184
 C       -10.2551548321       -0.9843721024       -2.9240467225
 C        -9.6714129731       -0.9099428443       -4.2803909299
 C        -8.6468156653        0.2571353234       -4.2814474675
 O        -8.6483156049        1.0528003515       -3.4065489890
 C        -7.7229433121        0.4814533026       -5.5387033945
 C        -8.2663819252        1.5360949905       -6.6377233657
 O        -9.4827199621        1.6137389933       -6.6600593279
 C        -7.3783842258        2.3536970204       -7.6404320798
 C        -8.1651373782        2.5219817214       -8.9649894332
 C        -8.3719531410        1.2985154677       -9.8113437222
 O        -8.5446237659        0.1955250335       -9.3688844023
 C        -8.4593524584        1.4488643163      -11.4044100672
 C        -6.9875918787        1.1107508129      -12.0078251507
 O        -6.1635230691        2.0216526847      -11.9276920497
 C        -6.7205482614       -0.2523581128      -12.7741383728
 C        -5.4048763789       -0.9162044273      -12.3988409672
 C        -4.0881949011       -0.1743072638      -12.8082449048
 O        -3.9952089832        0.0238118340      -14.0016261997
 C        -2.9266615999        0.3684336389      -11.8379711973
 C        -2.0893358465       -0.7538646608      -11.4258010652
 O        -2.1129724298       -1.3078679368      -10.4037953082
 C        -1.1719645798       -1.2542462643      -12.5784039811
 C        -1.0190878157       -2.8402712696      -12.4317400805
 C         0.0178057039       -3.4799557160      -13.3188569763
 O         0.9100387528       -2.7368832423      -13.7493114989
 C         0.0647805181       -4.9729650464      -13.5347147694
 C         1.4459158715       -5.5688337720      -13.8585694870
 O         1.6242725877       -6.2797019592      -14.7719237015
 C         2.5951513104       -5.3351773187      -12.8587297692
 C         4.0001672324       -5.0936819405      -13.5437157100
 C         5.1625818219       -5.0674349603      -12.5365628293
 O         5.1068182852       -5.0122534428      -11.3247843315
 C         6.7476032831       -5.0860869414      -13.2304052693
 C         7.1057246231       -3.7517992405      -13.8754147266
 O         6.2395382505       -2.9375913079      -14.1958583556
 C         8.6094624091       -3.6754862662      -14.3268538975
 C         9.6567292713       -2.8696388477      -13.3910640426
 C         9.2895447662       -1.3839193365      -13.3453660309
 O         9.0155934365       -0.8308677150      -14.3957934929
 C         9.2912670810       -0.4922826532      -12.0100936535
 C         8.4740134904        0.8902262954      -12.1410836322
 O         7.5806026235        1.1002888818      -11.3908126006
 C         8.6480645088        1.8248100663      -13.4325362029
 C         7.6144568138        2.8858556899      -13.4543567742
 C         6.2309087932        2.2049076537      -14.0348022252
 O         6.2735673379        1.4795395140      -14.9953316604
 C         4.8153309538        2.4381839423      -13.3459778375
 C         3.7292813830        1.8156339808      -14.2218933905
 O         3.3965551340        2.4360641693      -15.2262542739
 C         2.9399949801        0.5630898298      -13.9127248333
 C         2.1855344832       -0.0690056904      -15.0446632045
 C         3.1267686208       -0.6335444500      -16.1339076474
 O         4.2941056361       -0.8005990861      -15.8693776888
 C         2.3675478147       -1.0816406283      -17.5889870877
 C         3.5685466720       -1.0708280161      -18.6075203701
 O         4.0597044492       -2.1273532715      -18.9391500205
 C         4.2390720725        0.2542753516      -19.1159835894
 C         5.5892287184        0.1349208984      -19.7398237521
 C         6.5548050195       -0.2798347154      -18.6513465795
 O         6.4557425057        0.1382219994      -17.5493104870
 C         7.7000107589       -1.5468868783      -19.0026170897
 C         7.2095039597       -2.8960575955      -18.3969118523
 O         7.4820805073       -3.2470897997      -17.2751727987
 C         6.3686992349       -3.7674443810      -19.2606619579
 C         7.9317651711       -1.5949049684      -20.4767214063
 C         8.9771233216       -1.1655074702      -18.2187655577
 C         1.7833696364       -2.5104469506      -17.3572424973
 C         1.3908859016        0.1162887093      -18.0042905115
 C         4.6489159840        1.7653742782      -11.9037873207
 C         4.5326193241        3.9962837763      -13.1055620752
 C         8.6500745986       -1.3194111179      -10.9541236811
 C        10.7318443142       -0.2255243434      -11.4411331060
 C         7.7269529389       -5.5779579491      -12.1395752994
 C         6.8091212286       -6.1138272657      -14.4039116346
 C        -0.3449489917       -5.7882895026      -12.2763664837
 C        -0.9911662024       -5.3193330400      -14.6691707182
 C        -2.1080866170        1.4826595551      -12.6876433842
 C        -3.6616837099        0.9942598530      -10.5842924542
 C        -9.6226640011        0.5387934869      -11.9413565290
 C        -8.7703546003        2.8601850908      -11.8632010690
 C        -6.3312888400        1.1418856052       -5.1147257830
 C        -7.4659904265       -0.8446642313       -6.2940734945
 C       -11.5807513510       -1.2351070127       -0.1413251489
 C       -11.3803187474       -3.7515293851       -0.8394104650
 C       -17.5429830411       -2.2045152794       -5.0358876513
 C       -19.1344851978       -0.9574182500       -3.4276699264
 C       -19.9823518096       -7.2550571020        0.1901940089
 C       -20.2346930261       -5.1566105018        1.8354328366
 H       -17.9365741078       -7.0085559998        3.3653152545
 H       -16.7549139926       -7.8852998892        2.3147152627
 H       -18.4494495135       -8.2254952379        2.3636351612
 H       -20.8428476608       -5.1818218453       -1.4967921205
 H       -19.3466897905       -6.0102630792       -2.1999550449
 H       -20.1570602804       -3.1413521158       -2.1756968033
 H       -20.0078159687       -4.0553652953       -3.7734772359
 H       -15.0353806706       -0.9031676964       -3.7176899105
 H       -15.0176927209       -2.6617007328       -3.6048465693
 H       -15.1439593037       -1.5497431907       -0.8276590797
 H       -13.9755522153       -0.5010387431       -1.7849641518
 H        -9.5743680396       -1.4071173728       -2.1950173018
 H       -10.4062827186        0.1397729500       -2.7502492959
 H       -10.3423052444       -0.7050335611       -5.0611223567
 H        -9.2075551778       -1.8699245789       -4.5355052606
 H        -6.3584218693        1.9161119116       -7.5930656634
 H        -7.2199893838        3.3642442624       -7.2121064589
 H        -7.6452412355        3.2715974489       -9.6088303046
 H        -9.1446551909        2.8809530817       -8.6609963712
 H        -6.7844302495        0.0319337086      -13.7859817026
 H        -7.6025178161       -0.8829430449      -12.6303247975
 H        -5.3236556020       -1.9677339221      -12.8245462164
 H        -5.3548554656       -1.1223868158      -11.3532665234
 H        -0.1484963978       -0.8304807931      -12.5736880502
 H        -1.5430171133       -1.0124684635      -13.5627001897
 H        -2.0107572046       -3.3662502824      -12.5519469668
 H        -0.8359103760       -2.9524828804      -11.2695838297
 H         2.8775881630       -6.0922205194      -12.1673572120
 H         2.4101584807       -4.4243817963      -12.3292781978
 H         3.9357389284       -4.2940923265      -14.3489969709
 H         4.0100916211       -6.0918928040      -14.1381765374
 H         8.5867818008       -3.1028378931      -15.3230724326
 H         8.9126150045       -4.6935540118      -14.5161666368
 H        10.6754372027       -2.8555079609      -13.7750815034
 H         9.8619656697       -3.3778017725      -12.4612624705
 H         8.5525220601        1.2376938758      -14.4060867489
 H         9.6226524341        2.3950185476      -13.4541932285
 H         7.9095007748        3.7075160832      -14.0434739715
 H         7.3464912042        3.2809906000      -12.4726391066
 H         2.2983066134        0.7814453729      -13.1140878244
 H         3.7246766846       -0.1110892322      -13.5285353892
 H         1.3415413548        0.4388679250      -15.4686401782
 H         1.6667061925       -0.9321142872      -14.7690040705
 H         4.2567920086        1.0545441716      -18.3716525074
 H         3.4716637145        0.6900174731      -19.8431542316
 H         5.8894706822        1.0907310908      -20.1751858500
 H         5.6315722154       -0.5494489020      -20.6047794086
 H         6.0450212202       -3.4077087710      -20.2310241537
 H         5.4995113550       -4.1629187867      -18.7091525448
 H         6.9458718461       -4.5888290657      -19.4874397731
 H         8.3023906247       -2.5181957264      -20.9033556720
 H         8.6641549334       -0.8201157625      -20.7497230783
 H         7.0644962838       -1.5152304663      -21.0203205086
 H         9.6561684751       -2.0235765441      -18.1524168234
 H         8.6372809454       -0.8529868385      -17.1883238404
 H         9.5246797954       -0.2684366290      -18.6198046180
 H         2.3785758817       -3.3254695015      -17.7694830356
 H         0.7074395886       -2.5058454219      -17.7589488011
 H         1.6461907002       -2.7590529488      -16.3258180111
 H         1.9026523939        1.0292635572      -17.8683586444
 H         0.4919765655        0.0196734040      -17.4902443020
 H         1.0321116505        0.0321466071      -19.0396010805
 H         5.2521273353        0.9311066860      -11.6645754543
 H         3.6149558132        1.4689095511      -11.7709735709
 H         4.6833254982        2.5471303662      -11.1343875939
 H         5.2930610171        4.3511324249      -12.4551928276
 H         3.5931444537        4.3209992642      -12.6879454045
 H         4.5367049883        4.4914846343      -14.0301353073
 H         7.9492101701       -0.8293826198      -10.2792626281
 H         9.3046791467       -1.7145998992      -10.2492492138
 H         8.0017425370       -2.1354780936      -11.3123635289
 H        11.2444848937        0.3981939174      -12.1648751909
 H        11.1920523032       -1.1855228760      -11.3324916877
 H        10.5562490544        0.0809081305      -10.4620514197
 H         7.3740082883       -6.5727937974      -11.7641513328
 H         7.8577928483       -4.8362560620      -11.3563365785
 H         8.6966340889       -5.8010235301      -12.4713139113
 H         6.3270688581       -7.0398635109      -14.1076919398
 H         7.8494675163       -6.3773330886      -14.6852851002
 H         6.3345292169       -5.7630237516      -15.3513872114
 H         0.3395728861       -5.6085474561      -11.4368747466
 H        -0.2346660777       -6.8226320330      -12.4515092951
 H        -1.3214678402       -5.6001083973      -11.8716740557
 H        -0.9717515261       -6.3204661756      -14.8758646080
 H        -0.7769909114       -4.7891741942      -15.5628403950
 H        -1.9834643058       -5.0839640740      -14.3749384624
 H        -1.1204939427        1.6129030704      -12.2520987160
 H        -2.5933308961        2.4563133968      -12.7051767273
 H        -1.9639860317        1.2125588367      -13.7623808314
 H        -4.3839857226        0.3876574448      -10.0555018927
 H        -4.1529987577        2.0034245729      -10.6775256114
 H        -2.8813464920        1.2357025388       -9.9006118345
 H        -9.3555987018       -0.5042075721      -11.7648903137
 H        -9.8577723177        0.6637186697      -12.9822782543
 H       -10.5182538468        0.6697927576      -11.4893201201
 H        -9.8282539566        3.0955400884      -11.8378534668
 H        -8.3973272501        3.1276792677      -12.8557143001
 H        -8.4013257120        3.6331907944      -11.2277931831
 H        -6.0934040556        0.7317487189       -4.1481891037
 H        -6.4808271874        2.1858771192       -4.9198213153
 H        -5.5641315581        1.0384797410       -5.8859843893
 H        -6.8804405960       -1.5795216736       -5.7751924266
 H        -6.7562865066       -0.6329448493       -7.1509387589
 H        -8.3659200740       -1.2545956073       -6.6393203164
 H       -11.9044133305       -1.6044760793        0.7864607463
 H       -12.0904670137       -0.3456808805       -0.3343206545
 H       -10.4711566780       -0.9947472715       -0.1378555470
 H       -10.2356355218       -3.7503775467       -0.7230240366
 H       -11.4770753516       -4.4825634076       -1.6104305065
 H       -11.8526938722       -4.1763934262        0.0884273653
 H       -18.4809935171       -2.3471274317       -5.6535312439
 H       -16.8246704646       -3.0700477185       -5.1303635186
 H       -17.2332197689       -1.2676978493       -5.4044492043
 H       -19.1168585879       -0.4099878631       -2.5662155379
 H       -20.0611622238       -1.5084962327       -3.4483679187
 H       -19.2236394196       -0.2866468794       -4.3035560526
 H       -19.5627533248       -7.4775517618       -0.7889857722
 H       -21.0427501826       -7.1261830935        0.1368237320
 H       -19.7037187584       -8.1043413757        0.8948653617
 H       -20.4300227494       -5.8054880105        2.7340174330
 H       -21.2559082515       -4.9564369897        1.4955087699
 H       -19.8448199748       -4.1827140362        2.1475646319
 Na      -16.1199953166       -4.3759188962       -0.8275644092
 Na        6.8405137131       -0.9363102952      -15.5455483798
