232

 C       -17.5712368977       -7.2869901745        2.4059840190
 C       -17.6657436414       -6.4290344596        1.1623487700
 O       -16.6333381848       -6.0718079318        0.5994572160
 C       -19.0823702690       -5.9784611947        0.7616344139
 C       -18.9938303692       -4.8841494137       -0.2916977507
 O       -18.3416044727       -3.9085944973       -0.0256326768
 C       -19.7436219300       -5.1074305762       -1.5636170432
 C       -19.5334252881       -3.8183162823       -2.4608120284
 C       -18.1306409361       -3.3891135089       -2.8435028165
 O       -17.2074415653       -4.2277831837       -2.7442718800
 C       -17.7771134395       -2.0351164080       -3.4530919365
 C       -16.7869439225       -1.3675308971       -2.2773491691
 O       -17.1967949421       -0.5960431534       -1.4183237497
 C       -15.2987415942       -1.7743487298       -2.4000379518
 C       -14.3536026260       -1.4822022349       -1.2624172144
 C       -13.3749218952       -2.6180260750       -1.1031830327
 O       -13.7923177358       -3.7325742966       -0.8637302071
 C       -11.8895496695       -2.2423913066       -1.2682980287
 C       -11.6589773392       -1.6002254782       -2.7710782115
 O       -12.4419372712       -1.8280676873       -3.6771540637
 C       -10.2832176366       -0.9275545873       -3.0671422515
 C       -10.1772655209       -0.1950961519       -4.3527710685
 C        -8.9010720035        0.6340599675       -4.2895317979
 O        -8.6136050679        1.1881313039       -3.2202150041
 C        -7.9144783908        0.6312844289       -5.5361042118
 C        -8.6294333555        1.3200452416       -6.8205493683
 O        -9.7973508787        1.4667194905       -6.9131782794
 C        -7.5689914458        1.7746916657       -7.9785951694
 C        -8.4252294001        2.2142915153       -9.2544536716
 C        -8.4024998465        0.9947528756      -10.2412623764
 O        -7.9563326708       -0.0987367241       -9.9522018193
 C        -8.5357525827        1.2534982290      -11.8396386907
 C        -7.0751547239        1.1158993422      -12.3479159338
 O        -6.3956688835        2.0955471777      -12.3831096844
 C        -6.4214658998       -0.3289317636      -12.5554629252
 C        -5.0133741308       -0.6063289745      -12.0524352527
 C        -3.9502271484        0.3507810866      -12.7650823363
 O        -3.8156486066        0.3956681395      -13.9573898821
 C        -2.8322376634        0.9497015632      -11.8178775687
 C        -2.0421995681       -0.4780677270      -11.4164480170
 O        -2.2893271505       -0.9696124613      -10.2673291390
 C        -1.1640448665       -1.1912222865      -12.4126324285
 C        -0.9249188438       -2.6552075648      -12.1945064897
 C         0.0624829110       -3.2271642736      -13.1945823305
 O         0.9884180328       -2.5182055764      -13.4702690452
 C         0.0864734952       -4.6899142948      -13.6779103504
 C         1.6208314162       -5.2589422142      -13.8896652934
 O         1.6600499147       -6.3781906192      -14.4425509587
 C         2.8533791953       -4.5298676255      -13.2199395292
 C         4.1165299614       -5.1575618025      -13.7912749423
 C         5.3585523248       -5.0613009747      -12.8756216616
 O         5.2488489813       -4.3214697036      -11.9399701183
 C         6.8571307073       -5.4847135409      -13.3943554181
 C         7.4270723959       -4.0897086062      -13.8946051349
 O         6.6072212926       -3.2099964465      -13.9960619755
 C         8.9229516252       -3.7815868830      -14.3028735242
 C         9.6117871299       -2.8771390120      -13.2525771205
 C         8.9448729464       -1.4533892995      -13.2760374370
 O         8.4876941253       -1.0685884434      -14.3248923172
 C         9.2311402197       -0.4522000211      -12.0868671038
 C         8.3618079372        0.8409225667      -12.1055675464
 O         7.7695497413        1.1577655533      -11.0742152770
 C         8.4544230994        1.7611283020      -13.3897747804
 C         7.1869074875        2.6451872572      -13.6076262726
 C         5.8809210827        1.7349310405      -13.6751235909
 O         5.9337217796        0.6717808261      -14.3016861020
 C         4.4989353058        2.2207942849      -13.0727811588
 C         3.3851753177        1.8188857839      -14.2114221554
 O         3.1760860860        2.4637526554      -15.1813304226
 C         2.5713904082        0.5302427438      -13.9582904614
 C         1.9167223339        0.1740132165      -15.2713468682
 C         2.8981927575       -0.6308633783      -16.1695717593
 O         3.7773867332       -1.2250908584      -15.5901319714
 C         2.4783634527       -0.8708166447      -17.6685358597
 C         3.8013144340       -1.0847631216      -18.5557543407
 O         4.2649669957       -2.2065230009      -18.5780906082
 C         4.3988915198        0.0357700366      -19.4244993302
 C         5.8030889235       -0.4792528465      -19.9347612238
 C         6.6933815152       -0.6795004075      -18.7139539936
 O         6.4422714940       -0.1268143450      -17.6382306286
 C         7.7715503754       -1.7179540250      -18.9030458380
 C         7.1436883820       -3.0652866202      -18.2445579671
 O         6.6673735991       -3.0352350789      -17.0582812467
 C         7.0111838215       -4.3021377869      -19.0304801275
 C         8.3641958169       -2.0705077477      -20.3431904063
 C         8.9729252059       -1.4372216785      -17.9985936944
 C         1.4957587244       -2.0371832667      -17.5534693229
 C         1.7085956733        0.2865737716      -18.4096998546
 C         4.2933673371        1.5217586661      -11.6318582314
 C         4.3719503293        3.7538369057      -13.0562820911
 C         9.1403476067       -1.0872424265      -10.6933005410
 C        10.7810096308       -0.1979264061      -12.2259610851
 C         7.6054582228       -6.0493202301      -12.2112202802
 C         7.0550476972       -6.5041686559      -14.5299775934
 C        -0.5269157125       -5.6321673846      -12.5786968014
 C        -0.5377173191       -4.8224281612      -15.0728760423
 C        -1.9715831488        1.8556588638      -12.5961373797
 C        -3.3382837180        1.6397511309      -10.5730572855
 C        -9.6146384426        0.1949617748      -12.3249595204
 C        -9.1195147980        2.6526479750      -12.2003094136
 C        -6.6653481584        1.3648974565       -5.1860303094
 C        -7.5072714040       -0.8563731335       -5.8293606506
 C       -11.5572341767       -1.1341269120       -0.1870269275
 C       -11.0300549179       -3.5003252470       -1.0980863741
 C       -16.9401352383       -2.2160241053       -4.7622053216
 C       -18.9437091169       -1.0625753779       -3.7365278094
 C       -19.7370998545       -7.3476641348        0.3793069322
 C       -19.9773487832       -5.2082589863        1.8768754183
 H       -17.2281537955       -6.6828105335        3.2719880857
 H       -16.7663619379       -7.9914180529        2.2426085734
 H       -18.4768342179       -7.7285107774        2.7049451172
 H       -20.8310862731       -5.0821773464       -1.3655874935
 H       -19.3938232448       -6.0911585516       -1.9738129238
 H       -20.0265806651       -2.9415278277       -2.0045184476
 H       -20.2717080041       -3.9965174395       -3.3033914245
 H       -14.8717117414       -1.3934396573       -3.3237938263
 H       -15.3804560295       -2.8997143953       -2.5121324291
 H       -14.8991641863       -1.5230573611       -0.3058324468
 H       -13.7953647956       -0.5204202870       -1.3470568630
 H        -9.5576768146       -1.7569396852       -3.0561082964
 H       -10.1450736801       -0.1906234775       -2.2704753225
 H       -11.0769366648        0.4032984047       -4.5286830653
 H       -10.2378602606       -0.8456904286       -5.1949340831
 H        -6.8200485305        0.9871481301       -8.1666390755
 H        -6.9634763099        2.6181991818       -7.5379281654
 H        -7.9627584827        2.9937811522       -9.8350855577
 H        -9.4858633441        2.3525861031       -9.0103985275
 H        -6.4383505079       -0.3525990209      -13.6152643177
 H        -7.0657214177       -1.0772930773      -12.1362447538
 H        -4.8524688802       -1.6938924450      -12.2064949512
 H        -4.9518711737       -0.2578039681      -11.0095621301
 H        -0.1791069881       -0.7275229235      -12.4238207728
 H        -1.5183588093       -1.0932943552      -13.4424110595
 H        -1.9163952188       -3.2363628301      -12.1695301498
 H        -0.5397721140       -2.8753605883      -11.1397939112
 H         2.7750708359       -4.6259319966      -12.1211946121
 H         2.8224384874       -3.4620580216      -13.3595333358
 H         4.4225951437       -4.5023152973      -14.6751441872
 H         3.8381664971       -6.2247830201      -14.0433940584
 H         9.0008741003       -3.3499689436      -15.3051199400
 H         9.5059983345       -4.7380466553      -14.3327022602
 H        10.6373578233       -2.7926396874      -13.6735710456
 H         9.6873130628       -3.4674845914      -12.3876022148
 H         8.5044080564        0.9614636750      -14.1522833817
 H         9.4422299396        2.3422085437      -13.4103496300
 H         7.0963885815        3.3465831407      -14.3985516847
 H         7.0040179225        3.3149797196      -12.7526267998
 H         1.7052296562        0.5873220468      -13.3350697900
 H         3.2150859874       -0.2537012747      -13.5638611775
 H         1.3967692979        0.9413642868      -15.8035027845
 H         1.1173698717       -0.4432793219      -14.9924737079
 H         4.5116604029        1.0079617291      -18.8820146112
 H         3.6329499530        0.3683632033      -20.1628066363
 H         6.2508478754        0.2864951683      -20.6031074535
 H         5.8788277724       -1.3977492948      -20.5051184769
 H         7.1585727864       -4.2879807821      -20.0826304646
 H         6.0863714278       -4.7276863232      -18.8073187907
 H         7.7224116215       -5.0761042598      -18.6713640590
 H         9.0604349978       -2.8418697328      -20.1957513594
 H         8.8534334942       -1.2484585692      -20.8052453889
 H         7.6104800670       -2.3657536402      -21.1555835339
 H         9.6670325528       -2.3197736039      -18.1195944472
 H         8.6931448786       -1.4892617648      -16.9292615704
 H         9.4891457664       -0.5006592887      -18.2819164218
 H         1.0206927706       -2.0388044879      -16.5341873551
 H         1.9874984079       -2.9864941076      -17.6710801681
 H         0.5971344796       -2.0366573290      -18.1986283875
 H         2.2445140827        1.2270871751      -18.3607858039
 H         0.6504592385        0.4131914127      -18.0962618935
 H         1.7866195878        0.0622760361      -19.4051690361
 H         3.7584942747        0.5798795270      -11.7565966161
 H         3.8506709174        2.2201466813      -10.9541575836
 H         5.2259244377        1.1482578018      -11.2506276736
 H         5.1437832333        4.1252251285      -12.4634318297
 H         3.4386675303        4.1443620876      -12.6719731516
 H         4.4733062201        4.1269591304      -14.0626284298
 H         9.6869516857       -0.6196050545       -9.8782663232
 H         9.4453920674       -2.1338936599      -10.6122496123
 H         8.2117002892       -1.0765102901      -10.2499513429
 H        11.1309936475        0.0930330433      -13.1947310336
 H        11.0910287780       -1.1542434389      -11.9793706428
 H        11.0090448401        0.5611851523      -11.4957384194
 H         7.3916296125       -7.0870729812      -11.9971893017
 H         7.4665668239       -5.4857873978      -11.2855040821
 H         8.7053875346       -5.9490828968      -12.4873264687
 H         6.2815422668       -7.2756566749      -14.4198928644
 H         7.9745841428       -7.0572657815      -14.4216332548
 H         6.9838782197       -6.1375011492      -15.5106403262
 H        -0.4412888145       -5.5282111308      -11.5672007023
 H        -0.3428683488       -6.6434743518      -12.9246808379
 H        -1.5797828192       -5.5684127061      -12.7807148639
 H        -0.8801475276       -5.8075449735      -15.2465486735
 H         0.0980283772       -4.4625263654      -15.7946856105
 H        -1.4177291928       -4.2851110282      -15.1123353378
 H        -1.1264018211        2.4112405420      -12.0763495155
 H        -2.6113213246        2.6437238349      -12.9676519555
 H        -1.5058804454        1.3553011105      -13.4375177818
 H        -3.4788004328        0.9402484664       -9.7096291049
 H        -4.3257133112        1.9385135436      -10.7348132499
 H        -2.7695452811        2.5482209963      -10.3216662117
 H        -9.8463874669       -0.5659301027      -11.6543701704
 H        -9.2586791308       -0.2660346942      -13.1797546999
 H       -10.5874747763        0.7427721564      -12.5173481270
 H        -9.9180605819        2.9993313554      -11.5500992548
 H        -9.5504314708        2.6846852193      -13.1794500070
 H        -8.3022395517        3.4048754497      -12.1371548453
 H        -6.1035770442        0.6228717551       -4.5634080368
 H        -6.7135746254        2.2915300229       -4.6542390375
 H        -6.0390265130        1.5742615542       -6.0361987370
 H        -7.1352502180       -1.3982637056       -4.9526584912
 H        -6.8858604485       -0.8669768610       -6.6874555694
 H        -8.3838510144       -1.4795015021       -6.0954587850
 H       -11.7478938694       -1.5441033648        0.7940579397
 H       -12.1478320125       -0.2201378638       -0.2957008355
 H       -10.5563181398       -0.8784133541       -0.2481877381
 H       -10.0600945168       -3.1004972944       -1.2479711260
 H       -11.2991470790       -4.3226438878       -1.8523264243
 H       -11.1057669563       -4.1093391432       -0.1853977085
 H       -17.5547099658       -2.4876657866       -5.6133442070
 H       -16.2678736671       -3.0601607350       -4.5399137439
 H       -16.3644650293       -1.2246294764       -4.9469008883
 H       -19.6613121253       -1.0851787972       -2.8672866390
 H       -19.4144007614       -1.4432683915       -4.6002910143
 H       -18.6842378396       -0.0682844635       -3.8775183229
 H       -19.2872567295       -7.7182637812       -0.5324944182
 H       -20.8089256025       -7.1714858789        0.0486705502
 H       -19.5487347234       -8.0262657504        1.1421225509
 H       -20.1259245677       -5.8555742866        2.7475237543
 H       -20.9638217753       -4.9790865815        1.4076985506
 H       -19.6332693360       -4.2069192243        2.1864441885
 Na      -16.1397133507       -4.1387163103       -0.5744217760
 Na        6.1637089817       -1.3040053961      -15.4442671449
