232

 C       -17.2432430358       -7.2699186592        2.4589676653
 C       -17.6092356779       -6.4475643351        1.2342986017
 O       -16.5759375501       -6.1686811495        0.6053907580
 C       -19.1841725289       -6.0238991038        0.8466835657
 C       -18.9860478387       -4.8285538086       -0.1767215715
 O       -18.1923333581       -3.8658920391        0.0326612002
 C       -19.6596935320       -4.9398245016       -1.6125448135
 C       -19.4628906349       -3.6304278940       -2.3928104437
 C       -18.0723263037       -3.3928791530       -2.8414941388
 O       -17.2905560610       -4.3129704465       -2.6622058002
 C       -17.6567851510       -2.0725198877       -3.4957379062
 C       -16.7120597726       -1.3341619509       -2.4278438603
 O       -17.2026070490       -0.6489876676       -1.5998522001
 C       -15.2082695251       -1.5717993475       -2.4562384626
 C       -14.5643024390       -1.4677894265       -1.0297246835
 C       -13.3747468730       -2.4729564071       -0.9880613048
 O       -13.7313594201       -3.6371053536       -0.6670970692
 C       -11.9444459554       -2.1801685821       -1.2224115791
 C       -11.8156503516       -1.4793554697       -2.7145929731
 O       -12.7432876030       -1.5326738157       -3.4644906606
 C       -10.4223284647       -0.9352241363       -3.0336029652
 C       -10.2930460846        0.0196668133       -4.3206013255
 C        -8.9372176936        0.7280585329       -4.3642011173
 O        -8.6126122263        1.3942246361       -3.4201609653
 C        -7.9000709333        0.6899946465       -5.6051149394
 C        -8.5436023638        1.2312775511       -6.8947331938
 O        -9.7898910249        1.2466135049       -6.8855799379
 C        -7.7017040622        1.8168934375       -8.1185895253
 C        -8.5543573173        1.9555181691       -9.3324628274
 C        -8.3629725567        0.7839373140      -10.4277871743
 O        -7.7511009493       -0.1888172622      -10.0449052111
 C        -8.5866338184        1.1564259691      -11.9481530105
 C        -7.1043628595        1.0483544238      -12.4305748453
 O        -6.3886538765        2.0555544251      -12.4816323931
 C        -6.5170707524       -0.3601724748      -12.6463445923
 C        -5.1197665774       -0.2142398690      -11.8075198673
 C        -3.9997141958        0.4412772170      -12.6753079261
 O        -4.0382800474        0.5473043289      -13.8784053292
 C        -2.7005857902        0.9052678164      -11.8467826187
 C        -2.0628516663       -0.4224021986      -11.3529598719
 O        -2.2597746318       -0.8477478087      -10.2921076972
 C        -1.1249453242       -1.0584656760      -12.4593863067
 C        -0.9254251542       -2.6243007899      -12.2954629089
 C         0.2722777203       -3.0264360359      -13.1497195928
 O         1.0306905909       -2.1189815002      -13.6033189738
 C         0.2641426664       -4.5351179597      -13.5166531143
 C         1.7200342605       -5.2564709085      -13.9322193888
 O         1.6958370731       -6.3508527250      -14.3356517274
 C         3.0463874618       -4.3656523783      -13.6224689624
 C         4.2239943667       -5.3447899757      -13.7752051026
 C         5.3806503169       -5.1138876251      -12.8577539153
 O         5.2660720571       -4.4263349162      -11.8504339795
 C         6.8180652709       -5.4513821962      -13.3321930838
 C         7.3057827388       -4.0979808764      -13.8977720964
 O         6.4282637454       -3.3217455770      -14.2351114249
 C         8.8099541102       -3.8600265716      -14.2540242653
 C         9.4616462751       -2.8769198677      -13.2139386053
 C         8.9885944540       -1.4268058870      -13.2159751786
 O         8.0612811351       -1.0921602875      -13.9125570703
 C         9.5166687401       -0.3856312519      -12.2227275615
 C         8.4814831045        0.8790936527      -12.2794562082
 O         7.6541010024        0.9109258471      -11.4260611096
 C         8.4575043801        1.7315284423      -13.5402499322
 C         7.1888379265        2.4194220783      -13.4395077952
 C         5.8284053576        1.4696127505      -13.4837480288
 O         5.7985750765        0.3351993395      -13.8332805671
 C         4.3776492370        2.1712841469      -13.0498366070
 C         3.2535550073        1.7957595236      -14.1029005803
 O         3.0615267752        2.5388834796      -15.0546536806
 C         2.5741892277        0.4427458268      -14.0187781499
 C         1.7819428162        0.0244467308      -15.3087636763
 C         2.7430560348       -0.6226110957      -16.3328605864
 O         3.9048631216       -0.9226672063      -16.0532793353
 C         2.3147737154       -0.8229125530      -17.8289197600
 C         3.7657161637       -1.2308525966      -18.4393413912
 O         4.3151544341       -2.2695679670      -18.1866132521
 C         4.3493071449       -0.3352591256      -19.5148898504
 C         5.7717834688       -0.4402816233      -19.9122114472
 C         6.6806985154       -0.7480402135      -18.6716915744
 O         6.7035983060       -0.0419513471      -17.6734595099
 C         7.7762637290       -1.9087668138      -18.7820882176
 C         7.1767151441       -3.2249772196      -18.0855771721
 O         6.5684394211       -3.2157129047      -17.0877061075
 C         7.3788797798       -4.5915660673      -18.7379728992
 C         8.3031516876       -2.0454959579      -20.2392220147
 C         8.9663183317       -1.7278340346      -17.7658022141
 C         1.4684054823       -2.0771891311      -18.0727549856
 C         1.5875973557        0.4634389451      -18.2805567511
 C         3.9808241746        1.6267447247      -11.6368129594
 C         4.5010945236        3.6819947332      -12.9336412004
 C         9.2649007812       -1.0949039698      -10.8339594019
 C        11.0321247350        0.0546625773      -12.4404127079
 C         7.5418235262       -6.0603072063      -12.1505011081
 C         6.6973400330       -6.3685494292      -14.5290789710
 C        -0.5346227581       -5.4500257029      -12.6748696206
 C        -0.4949020422       -4.3541646644      -14.9188014701
 C        -1.7347644844        1.7700946964      -12.6818447369
 C        -3.2202344879        1.6466580561      -10.5994108038
 C        -9.3852174745        0.0145455913      -12.6301982404
 C        -9.1578297048        2.5703872217      -12.3368618816
 C        -6.6042025627        1.4364334502       -5.1432445654
 C        -7.6244393204       -0.7928199895       -5.7877285375
 C       -11.4205630466       -1.2212915779       -0.1663093211
 C       -11.1470875980       -3.5124125920       -1.1560559890
 C       -16.9670250817       -2.2913492558       -4.8559073952
 C       -18.8773361377       -1.0986537790       -3.5502354483
 C       -19.8514884548       -7.2550824938        0.2450367578
 C       -19.8399001314       -5.4978905669        2.0974742698
 H       -16.9903796846       -6.4985206605        3.1618399046
 H       -16.3638075788       -7.9123312136        2.4206874255
 H       -18.1445052042       -7.7655937205        2.9277231380
 H       -20.7407287554       -5.1145733412       -1.6021882070
 H       -19.0790251229       -5.7370154236       -2.0642904555
 H       -19.9719292487       -2.7500580694       -1.9422523189
 H       -20.1246895454       -3.6823726315       -3.2741823659
 H       -14.7571572010       -0.7658104027       -3.0417502213
 H       -14.9891034110       -2.4994113800       -2.9217611522
 H       -15.2618220728       -1.8715908394       -0.2811156286
 H       -14.2070696399       -0.5151941006       -0.6333955805
 H        -9.8859955605       -1.8309582696       -3.2818746592
 H       -10.0008832478       -0.4916458658       -2.1281792311
 H       -11.0924867727        0.7565202168       -4.1724982970
 H       -10.6432585440       -0.4842465275       -5.2611564065
 H        -6.8773427584        1.1043481963       -8.2566442690
 H        -7.2610963780        2.7369690648       -7.7856407233
 H        -8.3315305870        2.8935220625       -9.8490691246
 H        -9.5662179349        1.8889919876       -9.0100522315
 H        -6.3381913577       -0.5168078663      -13.7499716926
 H        -7.1778772678       -1.1153763538      -12.1535057553
 H        -4.7845310974       -1.2454827490      -11.6307823774
 H        -5.2533820826        0.3679057668      -10.9087593680
 H        -0.1073341610       -0.6107478731      -12.5014584517
 H        -1.4799185672       -0.9124231081      -13.4848501785
 H        -1.7879602429       -3.1649350427      -12.4653362434
 H        -0.6634032037       -2.8510387417      -11.2869229358
 H         3.0242585908       -3.9173292991      -12.5853317444
 H         3.0295311271       -3.4173321746      -14.2559570823
 H         4.6069559699       -5.2476662906      -14.7449856621
 H         3.8605333963       -6.3349983476      -13.4962832163
 H         8.8135793116       -3.3904376137      -15.2434899845
 H         9.2855560982       -4.7913726612      -14.3674465721
 H        10.5286189846       -2.8440331780      -13.4048188505
 H         9.2176635772       -3.4067854064      -12.2615402684
 H         8.7264525522        1.2334652727      -14.4516175794
 H         9.2069880150        2.4452051158      -13.4177313468
 H         7.0027063645        3.1644054248      -14.2734340368
 H         7.1347502761        3.0990726901      -12.5801728002
 H         1.7568633548        0.5077458990      -13.2166556824
 H         3.3502646267       -0.3050245395      -13.7296982380
 H         1.4962647480        0.9897389633      -15.8190863543
 H         0.7532933486       -0.4870218299      -15.3477187095
 H         4.1425641031        0.6984825912      -19.2991087643
 H         3.6984626302       -0.4737758316      -20.3875154697
 H         5.9792487795        0.5461228495      -20.3035538936
 H         6.0134492034       -1.1663257762      -20.7085502118
 H         7.1122020045       -4.4710252018      -19.8227204266
 H         6.6525635676       -5.3391897668      -18.3366049085
 H         8.2908839526       -5.1062807147      -18.7528452211
 H         9.0425282985       -2.8928260802      -20.2710297452
 H         8.8674639570       -1.0923469496      -20.5128747380
 H         7.5917450998       -2.0628700954      -20.9523761018
 H         9.4244998547       -2.6492862238      -17.4548390168
 H         8.4999839290       -1.3087414107      -16.8707058221
 H         9.7311460341       -1.0754938357      -18.1882562763
 H         0.4182834705       -1.9234341779      -18.1897530870
 H         1.5455443590       -2.8583026168      -17.2496571055
 H         1.7067443928       -2.4972231365      -19.0377155411
 H         2.1724120684        1.3893068825      -18.2541336563
 H         0.8298255703        0.5817972172      -17.5395901540
 H         1.1258904914        0.3828366950      -19.3214550637
 H         4.2789947572        0.6223947953      -11.4511405640
 H         2.8985124790        1.7675227837      -11.4837370878
 H         4.6277897669        2.2332569625      -10.9823272256
 H         5.1271448382        4.0955447209      -12.0926292546
 H         3.4763237685        4.1114391415      -12.8933622130
 H         4.9615026728        4.0125773587      -13.8873933153
 H         9.2197107721       -0.3684349631       -9.9964541581
 H        10.0610791602       -1.7545842741      -10.5142364396
 H         8.3299810407       -1.6831092267      -10.5724247705
 H        11.0895879371        0.7051114760      -13.3726323903
 H        11.6658883098       -0.8791787573      -12.4974078131
 H        11.2075962646        0.7481726319      -11.6290858215
 H         7.1418227413       -7.0708622753      -12.0008959936
 H         7.1902149266       -5.5863522807      -11.2384212700
 H         8.5729252863       -6.0621402800      -12.2092829820
 H         6.0345847675       -7.2593266994      -14.4150223382
 H         7.7052880904       -6.8049569928      -14.7978956322
 H         6.3129631745       -5.7942459042      -15.4388864154
 H         0.0233687102       -5.4040810496      -11.6566340616
 H        -0.5239335698       -6.4897828030      -13.0261729177
 H        -1.6300214333       -5.2667594597      -12.4746534570
 H        -0.8531285465       -5.3630192296      -15.1632765942
 H         0.1634620068       -3.9257941596      -15.7588720546
 H        -1.4349105250       -3.7284599202      -14.8384113512
 H        -0.8452235031        1.8760282850      -12.1353493034
 H        -2.0636135763        2.7841315900      -12.8224194134
 H        -1.3771907339        1.3289637752      -13.6105833695
 H        -3.8216135626        1.0541064383       -9.9369047915
 H        -3.7834379961        2.6383903715      -10.7696827679
 H        -2.3004322531        1.8525730046      -10.0576179829
 H        -9.0075404274       -0.9097810695      -12.0755034633
 H        -9.1347922010       -0.1414630153      -13.7212035328
 H       -10.3959017667        0.0546529747      -12.3444227776
 H       -10.2593523652        2.5610981064      -12.2471602605
 H        -8.9218595866        2.8364120680      -13.3971505723
 H        -8.7589816561        3.3520345539      -11.7214150694
 H        -6.3926873761        1.3818467720       -4.0856933906
 H        -6.6839157211        2.4889164256       -5.4503468285
 H        -5.6671145528        1.0777243863       -5.6399838944
 H        -7.2976083153       -1.0987823395       -4.8292258154
 H        -6.9055446314       -0.9727771989       -6.6317645823
 H        -8.4287213921       -1.4299387177       -5.9544758908
 H       -11.5370873364       -1.5738555904        0.8599139613
 H       -11.8393808702       -0.2409651608       -0.2881806710
 H       -10.2550097128       -1.1827798465       -0.2926372614
 H       -10.0763926222       -3.4047728835       -0.7611064278
 H       -11.3033581320       -4.1123344546       -2.0187717755
 H       -11.7119304295       -4.1641492704       -0.4598362454
 H       -17.8108310958       -2.5484034897       -5.5443919787
 H       -16.3679735767       -3.2310002869       -4.8003332654
 H       -16.3882480291       -1.4939714754       -5.1537291877
 H       -18.9164541837       -0.5788047543       -2.6668786068
 H       -19.8267323409       -1.6107659134       -3.7961174830
 H       -18.6929210360       -0.2911104862       -4.3403564892
 H       -19.5682336398       -7.4106446970       -0.7859522930
 H       -20.9377267403       -7.2389313510        0.3221485977
 H       -19.4739901864       -8.1055704274        0.8808020941
 H       -19.7816001905       -6.2453714454        2.9161470202
 H       -20.8707903778       -5.2184217519        1.9212756668
 H       -19.3555020045       -4.5858221758        2.4414424871
 Na      -15.9275819902       -4.1638095847       -0.7034099147
 Na        6.1803140203       -1.4651448777      -15.4134368820
