232

 C       -17.1659824799       -7.4680314886        2.4293240267
 C       -17.3633398848       -6.6491552017        1.2528894774
 O       -16.3757298770       -6.2744759379        0.5986860126
 C       -18.8495312064       -6.0502305406        0.9574474956
 C       -18.8076526093       -4.7331611968        0.0021192729
 O       -18.0767003273       -3.8055259194        0.3469621851
 C       -19.6951517142       -4.6931390398       -1.3721277275
 C       -19.4813810513       -3.4279379168       -2.1232788636
 C       -18.0221020393       -3.2559908477       -2.7736728915
 O       -17.1677009210       -4.1116434240       -2.5831714301
 C       -17.7121823294       -1.9068496553       -3.5695725063
 C       -16.8777378480       -1.2351456902       -2.3541664675
 O       -17.3932622062       -0.6407002834       -1.4597173164
 C       -15.3415401819       -1.5227415673       -2.5239927655
 C       -14.4853774832       -1.1569393541       -1.2952908322
 C       -13.4010709746       -2.3487768650       -1.1255494706
 O       -13.8146650826       -3.3708892737       -0.6307700217
 C       -11.9007378609       -2.1165294577       -1.3823660284
 C       -11.6717558200       -1.1995464061       -2.6514873678
 O       -12.5782859338       -0.9628909223       -3.4175017989
 C       -10.1954283051       -0.7707902576       -2.8707185105
 C       -10.2423671569       -0.0510322094       -4.2085281559
 C        -9.0722653581        0.9213173044       -4.3825716467
 O        -8.6793791208        1.6804113238       -3.5435257766
 C        -8.1789884443        0.7136375022       -5.6205901509
 C        -8.9181634688        1.0976763290       -6.9901486191
 O       -10.1456569675        0.9196062576       -7.0124319545
 C        -8.1017900423        1.4549245187       -8.1576539889
 C        -8.8157858870        1.7412126050       -9.5285145518
 C        -8.4066403153        0.5709591872      -10.4626169775
 O        -7.9675601926       -0.5228773276      -10.1212983528
 C        -8.5818741491        0.9667054849      -11.9641363127
 C        -7.1039194936        1.1058937418      -12.6141982495
 O        -6.6494856858        2.2156734449      -12.9119766471
 C        -6.2807021212       -0.2644696653      -12.6800669901
 C        -4.9615260327       -0.2839404896      -11.8679089332
 C        -3.8069464063        0.5958644002      -12.5061599366
 O        -3.9337895691        0.8818292677      -13.6749486004
 C        -2.5136954328        1.1192044852      -11.7654502619
 C        -1.8449968961       -0.2193803486      -11.3807359246
 O        -2.2027679457       -0.8034659799      -10.4265616309
 C        -0.9526691228       -0.8889138863      -12.4238250486
 C        -0.6130568021       -2.3271866351      -12.1477458564
 C         0.3425761696       -2.9156103313      -13.1061361302
 O         1.3591946474       -2.2479694133      -13.3222898995
 C         0.2405944910       -4.2576491648      -13.7963711330
 C         1.5771956339       -5.0469785558      -13.9510574628
 O         1.5728862928       -6.1702367954      -14.3315229255
 C         2.9676081090       -4.4108939547      -13.7821606417
 C         3.9683276235       -5.5698229833      -13.7431059444
 C         5.2530205913       -5.2506280517      -12.7753583009
 O         5.1702125928       -5.0404474264      -11.5725805054
 C         6.7415796685       -5.4641915027      -13.2992960381
 C         7.1081201953       -4.1655923220      -14.0172258909
 O         6.2887153317       -3.3244106404      -14.4237524045
 C         8.7586719403       -3.9309438468      -14.2073029394
 C         9.4113161942       -3.1225332126      -13.0656433046
 C         8.9783123092       -1.6008148073      -13.1648432856
 O         8.3799966051       -1.2654251295      -14.1893314475
 C         9.3987895026       -0.4269980769      -12.2466793017
 C         8.2580243992        0.7306622465      -12.1730707315
 O         7.6044381065        0.7446583476      -11.1756303418
 C         8.0862841461        1.3887095814      -13.4638983008
 C         6.8641587475        2.2230764858      -13.6957822926
 C         5.5643347817        1.4346223013      -13.4038167122
 O         5.5846971904        0.2436574365      -13.4404696073
 C         4.2222017172        2.1421757008      -12.8585193059
 C         3.2335754976        1.8089583695      -14.0675579218
 O         2.9221601251        2.5864151411      -14.9920409814
 C         2.5569058318        0.4402114566      -14.0992209800
 C         1.8146601694        0.0159725950      -15.3582824497
 C         2.7672928027       -0.3932375540      -16.4891549016
 O         3.9330912370       -0.6924525549      -16.2396706467
 C         2.4448697403       -0.7601484944      -17.8992922372
 C         3.7717432606       -1.1811574762      -18.6190367735
 O         4.2786005888       -2.2757853951      -18.5606655202
 C         4.6014395341       -0.1039468195      -19.4397108444
 C         5.8549800996       -0.8528154722      -19.8393910534
 C         6.7034595674       -1.0130163830      -18.6032094801
 O         6.4885876721       -0.2650955235      -17.6891522218
 C         7.9140421957       -2.1712341808      -18.5031775288
 C         7.2717931207       -3.4891934301      -17.8907431021
 O         6.4660338367       -3.4762109719      -17.0278893075
 C         7.6527124472       -4.8134697510      -18.6200552645
 C         8.4187189263       -2.3499353980      -19.9846620178
 C         9.0602414750       -1.6537328827      -17.5392992007
 C         1.4629907580       -2.0275860071      -17.8437582987
 C         1.8779334327        0.4544898944      -18.5845763389
 C         3.7737090540        1.6153978691      -11.4377819176
 C         4.2789155904        3.7065868629      -12.8689701633
 C         9.8462937714       -0.8440904657      -10.8792018209
 C        10.6593473344        0.1133398188      -13.0762144121
 C         7.7365008997       -5.7765825118      -12.0796329613
 C         6.8236079009       -6.5966523970      -14.3457788433
 C        -0.5602525222       -5.1435077110      -12.7035305288
 C        -0.5902320728       -4.3454942957      -15.0210001496
 C        -1.8418185348        2.0935390262      -12.7193956401
 C        -2.7804297803        1.9695939231      -10.4668742283
 C        -9.3595663736       -0.1918243600      -12.5844497731
 C        -9.2484767730        2.3474735380      -12.1642103178
 C        -6.8029280037        1.4904969793       -5.2985466845
 C        -7.7927004145       -0.7672312200       -5.7171046934
 C       -11.4767378632       -1.3614733912       -0.0718020706
 C       -10.9351900311       -3.4021492444       -1.3653466980
 C       -16.9371320107       -2.2717613463       -4.8657543082
 C       -18.9748173347       -1.1106384560       -3.9454647138
 C       -19.5378262956       -7.3282263243        0.3648036876
 C       -19.6330159940       -5.4968035417        2.1526906457
 H       -17.4968424555       -6.9898246663        3.3410119323
 H       -16.0973827340       -7.5218937242        2.5094373000
 H       -17.6632371282       -8.4407374520        2.3515920509
 H       -20.6981198013       -4.9282461069       -1.0305969857
 H       -19.2957554756       -5.4865579047       -2.0857088003
 H       -19.8988175427       -2.4698563994       -1.6494222932
 H       -20.1128885366       -3.2641320604       -2.9627950615
 H       -14.8799866866       -1.0006941954       -3.4352041553
 H       -15.3099098952       -2.5796640889       -2.6753649463
 H       -15.1137316045       -1.1434722534       -0.3779168646
 H       -13.9904937174       -0.1927030111       -1.1938917512
 H        -9.4035692768       -1.5690675569       -2.9257522687
 H        -9.9280375900       -0.1198775640       -2.0917518058
 H       -11.2053264678        0.4999044642       -4.1603624010
 H       -10.2431181746       -0.7388505672       -5.0564522956
 H        -7.4976729462        0.5013885437       -8.1983024219
 H        -7.4252377958        2.3026385561       -7.8507051859
 H        -8.4071995068        2.6046705238      -10.0130775435
 H        -9.9219724277        1.8037769546       -9.4723289503
 H        -5.9570629373       -0.3773443297      -13.7107195443
 H        -6.8865868375       -1.0465275619      -12.3439187948
 H        -4.6190920970       -1.3159699406      -11.9846277945
 H        -5.2616546884       -0.0955733331      -10.7886689625
 H        -0.0629683704       -0.3225581329      -12.6215139952
 H        -1.4870604770       -0.8364494665      -13.4120110531
 H        -1.5999556023       -2.9162986281      -12.0992538223
 H        -0.2684676170       -2.3239934683      -11.0834429892
 H         2.9331540749       -3.9089097014      -12.8130324517
 H         3.1671944988       -3.5317163118      -14.4047891549
 H         4.4369075666       -5.4712042570      -14.7549113875
 H         3.5955178761       -6.5806084898      -13.4679388391
 H         9.0047383813       -3.3784852676      -15.1023408828
 H         9.2368815354       -4.9462615266      -14.3513694406
 H        10.4445729527       -3.2475167612      -13.2017919650
 H         9.0093434495       -3.5634180712      -12.1388020746
 H         8.2401726775        0.6608094964      -14.2896740991
 H         8.9257352295        2.0909374429      -13.6741425356
 H         7.0339403717        2.6076865751      -14.7717297613
 H         6.7747429219        3.0635188123      -13.0560745729
 H         1.8620135627        0.4375501913      -13.2563177698
 H         3.2412950223       -0.3165992577      -14.0227588441
 H         1.3362958501        0.8287760927      -15.8029894256
 H         0.9697161624       -0.6741057420      -15.3765151293
 H         4.6911217200        0.9026386601      -18.8956992081
 H         4.1331129708        0.0357966875      -20.4226441798
 H         6.5067294799       -0.2609446096      -20.4793483980
 H         5.5825246239       -1.7782805030      -20.3372958720
 H         6.9482123381       -5.1544386738      -19.3361547556
 H         7.7379259838       -5.6161214323      -17.8799922580
 H         8.5377905816       -4.8546181486      -19.1763749697
 H         9.3908321731       -2.8866296404      -20.0309971331
 H         8.4959192478       -1.3873459887      -20.4624461738
 H         7.6662789057       -2.8436572469      -20.4621938444
 H        10.0005645596       -2.1803497183      -17.7769610072
 H         8.8080690573       -1.8258229884      -16.4926616409
 H         9.2765300712       -0.5974632848      -17.7329228513
 H         0.7161153968       -1.9474079169      -18.6223298374
 H         0.8461025012       -2.0278230935      -16.9574219355
 H         1.9815222304       -2.9698997701      -18.0836705639
 H         2.3543550839        1.3212343528      -18.1733686594
 H         0.8328177750        0.6056986420      -18.4057386500
 H         1.9710275487        0.3389521867      -19.6956710559
 H         4.2750546989        0.6832838124      -11.1822152304
 H         2.7334494389        1.3270368933      -11.5075438058
 H         4.0430528434        2.3759413719      -10.7384303128
 H         5.0698799589        4.1517684567      -12.2659086388
 H         3.3604617548        4.0436229150      -12.5564060911
 H         4.5073779386        4.0218910877      -13.8475782108
 H        10.2312041634       -0.0980199711      -10.2604911455
 H        10.5659618881       -1.6249226620      -10.8463802010
 H         9.0722907666       -1.3579472379      -10.2572061457
 H        10.2576448014        0.3841824570      -14.0073501149
 H        11.4418418191       -0.6227522997      -13.2108803930
 H        10.9777133393        1.0130593156      -12.5839463373
 H         7.4055145466       -6.4827224722      -11.3034030164
 H         7.9097200748       -4.8364240957      -11.4991048927
 H         8.6463043241       -6.0980892564      -12.5844567605
 H         6.4413290828       -7.4481059566      -13.9082733200
 H         7.7607532772       -6.7868841594      -14.7682144920
 H         6.1464755959       -6.3760093613      -15.1711626088
 H        -0.0017212185       -5.1169930601      -11.7768036441
 H        -0.5987655523       -6.1270937614      -12.9944134771
 H        -1.5691964022       -4.8974854584      -12.6068095049
 H        -0.1400685976       -4.9871162153      -15.6801487720
 H        -0.6411972106       -3.3954833504      -15.4887227663
 H        -1.6015412856       -4.5872264119      -14.7948535100
 H        -0.8404216651        2.4592011996      -12.5344742817
 H        -2.4689777015        3.0552683474      -12.7359922908
 H        -1.8603267539        1.7355900091      -13.7739996904
 H        -3.1721847495        1.3324902759       -9.7102821235
 H        -3.5213053762        2.7820031361      -10.7428289307
 H        -1.8663933677        2.3510481505      -10.0305208333
 H        -8.8206453524       -1.1068146099      -12.3675403399
 H        -9.3968022549       -0.0220453767      -13.6647134676
 H       -10.2595352772       -0.2598508956      -12.1503342697
 H       -10.0858214746        2.5467098878      -11.4695961432
 H        -9.5928822191        2.3276827523      -13.2100843802
 H        -8.5244573019        3.1471035731      -12.1644581838
 H        -6.2768336608        1.1175310220       -4.4912486006
 H        -7.0794862161        2.5387224911       -5.0879218947
 H        -6.0201825568        1.4363610397       -6.0779409278
 H        -7.1583516942       -1.0559107463       -4.8426347416
 H        -7.1335037102       -0.8345694337       -6.6119716571
 H        -8.5994783058       -1.5261244836       -5.8210435366
 H       -11.6223385070       -1.9592432586        0.7966098217
 H       -12.0483784962       -0.4992073946       -0.0098756275
 H       -10.4074183403       -1.0460536901       -0.0508773150
 H        -9.8826265615       -3.2093249812       -1.7857140924
 H       -11.4768968981       -4.1546009185       -1.9156474438
 H       -10.6859220809       -3.6930222024       -0.3198518770
 H       -17.6588064602       -2.8339777788       -5.5609728927
 H       -15.9891421788       -2.8346449997       -4.7900377914
 H       -16.6255815968       -1.3437823871       -5.2886179572
 H       -19.6736021811       -1.0579838318       -3.1856601724
 H       -19.3808469718       -1.4531808378       -4.8832078285
 H       -18.6175497407       -0.0796520529       -4.0822875574
 H       -18.7952332826       -7.7946463698       -0.2806887850
 H       -20.4427466400       -7.1882045535       -0.1118303905
 H       -19.8884820223       -8.0131602693        1.1938984689
 H       -19.9689607034       -6.2400929933        2.8626903258
 H       -20.4772051904       -4.8567666627        1.8629083471
 H       -18.8510746455       -4.9350173492        2.7050054016
 Na      -15.9070711917       -4.4999500474       -0.7901007860
 Na        6.2056485725       -1.2468894155      -15.7097751301
