232

 C       -17.1391836063       -7.7419216059        2.4109282406
 C       -17.1452377310       -6.5964883570        1.3592192064
 O       -16.1366708462       -6.2940016516        0.7566348027
 C       -18.6432680348       -6.0440459991        0.9634955731
 C       -18.5003210483       -4.7741201484        0.1282156565
 O       -17.6422785817       -3.9335424762        0.2515928209
 C       -19.4254618602       -4.5999709328       -1.0383170792
 C       -19.2988268784       -3.2557077015       -1.7844996647
 C       -18.1205509812       -3.2647478552       -2.7363623386
 O       -17.2593345609       -4.1507341197       -2.7954420479
 C       -17.8291675653       -1.9261128596       -3.5216434657
 C       -16.8753694424       -1.1633487556       -2.4768610475
 O       -17.2379948665       -0.4787081405       -1.5553505391
 C       -15.3910641947       -1.4892722725       -2.6002420941
 C       -14.7606536003       -1.1497192688       -1.2327792608
 C       -13.6411260034       -2.2225625593       -1.1106355067
 O       -13.8760895319       -3.3921702547       -1.0878496408
 C       -12.0039470331       -1.9181973819       -1.1242807526
 C       -11.7878998700       -1.0959421714       -2.4267233698
 O       -12.6715160457       -1.0124128321       -3.2595844271
 C       -10.4554353210       -0.4452962431       -2.6988032520
 C       -10.3518176468        0.1602014347       -4.0701754343
 C        -9.0319964128        1.0118949247       -4.3325274197
 O        -8.7500293074        1.9533912828       -3.6705175788
 C        -8.1060954969        0.6746358320       -5.7045944392
 C        -8.8748109411        1.0459859773       -6.9575879692
 O       -10.0789643893        0.7925007754       -6.9099962339
 C        -8.1980494052        1.4326740228       -8.3011820945
 C        -9.0612751757        1.4160634058       -9.5447677985
 C        -8.6294972982        0.4315532409      -10.6202888764
 O        -8.0981982867       -0.6294692268      -10.2470493400
 C        -8.6759378562        0.8024979328      -12.1771311176
 C        -7.1985467462        0.9867276890      -12.6148055002
 O        -6.7900215915        2.0147346758      -13.1788906168
 C        -6.2459648429       -0.2158190009      -12.4149602209
 C        -4.9730876696        0.4244036874      -11.8370147540
 C        -3.7199276755        0.9291687646      -12.6918549506
 O        -3.7631708377        1.2086342331      -13.8447936419
 C        -2.4287502776        1.3170257985      -11.7383049741
 C        -1.6912372503       -0.0333945989      -11.4636448304
 O        -2.0173413658       -0.6700815438      -10.4386558500
 C        -0.7797511672       -0.6134321196      -12.4695004123
 C        -0.5938908271       -2.1903568131      -12.1822062332
 C         0.5275060953       -2.8526949694      -12.9724933559
 O         1.4763500633       -2.3102345619      -13.5026270396
 C         0.2145814820       -4.3428903725      -13.5376078210
 C         1.5237726902       -5.1622123669      -13.9293027641
 O         1.3606622257       -6.0735184004      -14.7028420853
 C         2.8800742699       -4.8820527945      -13.1305368669
 C         4.0783655123       -5.5665419101      -13.7921843310
 C         5.1249928653       -5.5827926834      -12.7645182150
 O         4.7327607835       -5.4221916657      -11.6205326304
 C         6.7415472722       -5.7026950635      -13.0664803440
 C         7.1610682413       -4.3951843648      -13.7462139769
 O         6.3048693887       -3.5506508415      -14.0340251015
 C         8.5940058833       -4.1062520959      -14.0132257058
 C         9.0850138965       -2.9848116141      -13.0517905203
 C         8.9749527700       -1.5869443588      -13.5560909741
 O         8.5083119168       -1.2386270985      -14.6507887330
 C         9.5976077594       -0.3786813111      -12.6417466087
 C         8.2898115817        0.6407141883      -12.4781427796
 O         7.7374899161        0.6864172448      -11.3850286487
 C         7.8776360768        1.5396263920      -13.5818594570
 C         6.5946998592        2.2438487501      -13.1966325086
 C         5.3376824896        1.3741378982      -13.2088983132
 O         5.3031352854        0.2434613792      -13.6874487556
 C         3.9658434173        2.1189037965      -12.8716598024
 C         3.0155352687        1.8448898581      -14.0652180069
 O         2.8373680568        2.6964791507      -14.9484310251
 C         2.3762510651        0.5254105523      -14.1313428275
 C         1.9436688457        0.1726065477      -15.6181084050
 C         3.0458637808       -0.2677138203      -16.4961858298
 O         4.2056370033       -0.4975588325      -16.1882104508
 C         2.5290059071       -0.7522497819      -17.8934211202
 C         3.7591407309       -1.3075368397      -18.8385991018
 O         3.8749648312       -2.4683176310      -19.0979387712
 C         4.6206976096       -0.2966882886      -19.6642239636
 C         6.0715726262       -0.7513681594      -19.8701464081
 C         6.9348319494       -1.0999462770      -18.6066073273
 O         6.6892947114       -0.6126993058      -17.5680612563
 C         8.1060513820       -2.2183563146      -18.5984536508
 C         7.3704755911       -3.4524310285      -17.9231181863
 O         6.6664165204       -3.2327681272      -16.9625529292
 C         7.7041464207       -4.9198296130      -18.4319093932
 C         8.6822855302       -2.5736207408      -19.9843476574
 C         9.2751576937       -1.7877990589      -17.6727788440
 C         1.4038231853       -1.8770514137      -17.7686817064
 C         1.9753675440        0.5279243408      -18.6258809439
 C         3.5132600917        1.3894675372      -11.5679867759
 C         4.1049569670        3.5880621717      -12.7413578979
 C         9.9208368576       -0.9553028726      -11.1889150874
 C        10.7272951243        0.3685022587      -13.3467376351
 C         7.5561248361       -5.9080099547      -11.7879632715
 C         7.0408384365       -6.8851778437      -14.0414079645
 C        -0.6556679199       -5.2302231386      -12.6398948501
 C        -0.4086822414       -3.9538037346      -14.9511289097
 C        -1.5561427350        2.3175733859      -12.4157835020
 C        -3.0376810596        2.0516855224      -10.5127917445
 C        -9.4036876208       -0.4040447032      -12.8390346894
 C        -9.4775361383        2.0525767263      -12.4389112915
 C        -6.7924989826        1.5158449228       -5.4747631179
 C        -7.6343678148       -0.7719206549       -5.6539088561
 C       -11.4281796133       -1.2218548324        0.0681746719
 C       -11.3120103158       -3.2936691034       -1.3493967398
 C       -17.1545395222       -2.2902626161       -4.8286847403
 C       -18.9721080909       -0.9967978571       -3.8908395655
 C       -19.4596192996       -7.1187637898        0.2619202140
 C       -19.3168293372       -5.5976648780        2.2931648139
 H       -18.1463397104       -7.7596031178        2.8994045863
 H       -16.4550129490       -7.6952725949        3.2729759981
 H       -17.1058058050       -8.6289831140        1.8065446778
 H       -20.4429202715       -4.7549740245       -0.7308318831
 H       -19.1789919814       -5.4177996783       -1.7100892924
 H       -19.4023839704       -2.3355238502       -1.2297895492
 H       -20.1654517856       -2.9912253381       -2.3553780162
 H       -14.8687335598       -0.8284379065       -3.3217072993
 H       -15.3046650505       -2.5417352347       -2.9253491333
 H       -15.4369119082       -1.3443910474       -0.4113073941
 H       -14.4649310554       -0.1289832632       -1.0292218403
 H        -9.5001058497       -1.0835043321       -2.5383846390
 H       -10.2130966947        0.3557396264       -1.9736732805
 H       -11.1677382340        0.8655837207       -4.1948256676
 H       -10.3320586677       -0.5542084580       -4.8430882622
 H        -7.4302008761        0.7105425863       -8.3748283646
 H        -7.7685311343        2.4300326693       -8.2873201640
 H        -9.0633918973        2.4238896838       -9.9623489501
 H       -10.1652426339        1.2269162291       -9.3206944396
 H        -5.9902887234       -0.6650797789      -13.3990284757
 H        -6.6001870753       -0.9385494615      -11.6803831829
 H        -4.6452356353       -0.2350178275      -11.0809684672
 H        -5.2941153304        1.3256245509      -11.2719615420
 H         0.0971844267        0.0034151857      -12.3860914976
 H        -1.1311402475       -0.4831566025      -13.5055085578
 H        -1.5582322016       -2.5767916933      -12.6841210219
 H        -0.6206962089       -2.4379669531      -11.1247142917
 H         2.6226599101       -5.0014020323      -12.1107549405
 H         3.0254864206       -3.8342375707      -13.1741585968
 H         4.4329692016       -4.9275820438      -14.6548551958
 H         3.7994287981       -6.5377208765      -14.1720496449
 H         8.5424496169       -3.7445331065      -15.0204227930
 H         9.2911920787       -5.0132014283      -14.0230882031
 H        10.1572254592       -3.1889601177      -12.8179253872
 H         8.4307769271       -3.0125817149      -12.1597081546
 H         7.7901753847        0.8639672151      -14.4501521157
 H         8.6655397259        2.2800333922      -13.9319180004
 H         6.3442508897        3.0347336294      -13.8743835259
 H         6.7029134936        2.6106849679      -12.2270201387
 H         1.4086041344        0.4692506078      -13.5979871440
 H         3.1259231455       -0.2033126639      -13.7684522115
 H         1.3961595561        1.0041345993      -16.1284511945
 H         1.1594528445       -0.5942878437      -15.7421289776
 H         4.5754192579        0.7554263183      -19.3698154474
 H         4.1689105543       -0.4358640118      -20.6158023488
 H         6.6176791145        0.0047269633      -20.4905931286
 H         6.0316368144       -1.7020632378      -20.3919616454
 H         7.8273828278       -5.1161712812      -19.4962989275
 H         7.1016166969       -5.7775157630      -18.0009145802
 H         8.7358003813       -5.1825340101      -18.0419875078
 H         9.1125552377       -3.6328957794      -20.0610417618
 H         9.4331491278       -1.8094733791      -20.2079893734
 H         7.8533714018       -2.5786465259      -20.6907461861
 H         9.9601606754       -2.6499237394      -17.6841581575
 H         8.9900108092       -1.5012747439      -16.6882608606
 H         9.8374440131       -0.9982016302      -18.1352389939
 H         1.7692513589       -2.7324232482      -18.3829107803
 H         0.4402450679       -1.6565637825      -18.1112737295
 H         1.4124981292       -2.2779724763      -16.7241639501
 H         2.7480922372        1.1762283234      -19.0213337540
 H         1.4257921467        1.2423573271      -17.9793382692
 H         1.1731623993        0.2811108995      -19.2948768333
 H         2.8038978698        0.5766531721      -11.8612062747
 H         2.9564144880        1.9872198404      -10.8018489205
 H         4.3987261174        1.0638168376      -11.0383919329
 H         4.8566745493        3.7873847982      -11.8966301055
 H         3.1858608082        4.1023949786      -12.5696858727
 H         4.6436440839        3.9917308023      -13.6471429326
 H        10.5750733315       -0.4079847683      -10.6183393295
 H        10.4156271750       -1.9381111941      -11.1836051403
 H         9.0813052110       -1.2317812976      -10.5375011781
 H        10.3179804459        0.5601984771      -14.3072044835
 H        11.6305739229       -0.2860504863      -13.4148427724
 H        11.0972684497        1.2957585478      -12.7745907470
 H         7.5166417565       -6.9516579556      -11.6008440995
 H         7.0546231289       -5.3603911816      -10.9982604402
 H         8.6330478590       -5.6781118595      -11.8848811122
 H         6.6371689623       -7.8303857687      -13.6479846056
 H         8.1370660135       -6.9980237213      -14.1991886760
 H         6.6338248534       -6.7019932793      -15.0892263260
 H        -0.0402324774       -5.3151526589      -11.6982432157
 H        -0.7106378079       -6.2798669472      -12.9988904416
 H        -1.7242932143       -4.8430602684      -12.4705802896
 H        -1.0079646735       -4.8209336461      -15.2982278694
 H         0.2887875512       -3.7121517816      -15.8244188682
 H        -1.0183733237       -3.0163057295      -14.6919399173
 H        -1.0579581736        2.9160547393      -11.6929859188
 H        -2.1304689128        3.0092044731      -13.0559061922
 H        -0.8750226356        1.9214014390      -13.0952805255
 H        -3.5033586045        1.3447501597       -9.8237139561
 H        -3.7047017280        2.8183288941      -10.9219260709
 H        -2.2523253679        2.5113066330       -9.9009821193
 H        -9.1312031986       -1.3801900475      -12.3756983628
 H        -9.2701650989       -0.3112896079      -13.9685116640
 H       -10.4503028234       -0.1888982500      -12.6794658961
 H       -10.5021096520        1.8381896542      -12.1532247895
 H        -9.3065347611        2.3747503764      -13.4526529544
 H        -9.0554654279        2.8131107510      -11.7626334228
 H        -6.5414868870        1.4339389360       -4.4377010281
 H        -6.9858157629        2.6062454978       -5.5832867551
 H        -5.8893331227        1.1739299396       -6.0167900558
 H        -7.1496544179       -0.9766692607       -4.7029510426
 H        -6.8081858247       -0.8788071501       -6.2740097380
 H        -8.4193261021       -1.4956901389       -5.9671745282
 H       -11.7877207405       -1.7928760766        0.9772581843
 H       -11.6705081435       -0.1404760761        0.1726148401
 H       -10.3444450299       -1.2751953645        0.0501874998
 H       -10.2669602118       -3.0681184167       -1.1435560194
 H       -11.3166142775       -3.5465859959       -2.3662067139
 H       -11.5950543077       -4.0164317789       -0.6230818579
 H       -17.9320764508       -2.4782099789       -5.5493334348
 H       -16.6143509768       -3.1713133321       -4.6916275148
 H       -16.4213721979       -1.5807316465       -5.2470526520
 H       -19.2988721288       -0.4604541419       -2.9850149609
 H       -19.8371986143       -1.6570678588       -4.1629128998
 H       -18.7403561574       -0.3305647864       -4.7364848009
 H       -18.9417970289       -7.2925492692       -0.7219395643
 H       -20.4634494409       -6.8561743961        0.1438826688
 H       -19.5322938094       -8.1699858352        0.7333639246
 H       -19.1466211269       -6.1980185321        3.1250989255
 H       -20.3931683100       -5.6363329597        2.1306286351
 H       -18.9400001886       -4.6026366808        2.5769040714
 Na      -15.8886287920       -4.4808365820       -0.6580541557
 Na        6.3056478595       -1.3878852954      -15.1619518287
