232

 C       -17.0450876467       -7.8413131888        2.3022430520
 C       -17.1667297328       -6.6867694642        1.3490201133
 O       -16.0947879207       -6.2207610071        0.8862373663
 C       -18.5767553611       -6.0325100912        0.9991485536
 C       -18.4167551540       -4.8035748447        0.0652820670
 O       -17.6210925670       -3.9206335654        0.4588034179
 C       -19.5465267100       -4.5524754426       -1.1062987881
 C       -19.2419220515       -3.1776432410       -1.7717598634
 C       -18.0500220540       -3.1202768913       -2.7016393548
 O       -17.3355457051       -4.1327945179       -2.7562701668
 C       -17.7973070135       -1.9180825848       -3.5256412265
 C       -16.8112154903       -1.0545515148       -2.5379518672
 O       -17.3710473468       -0.4245430355       -1.6605399931
 C       -15.3096445814       -1.3549273088       -2.5590222787
 C       -14.6571427479       -1.2876792134       -1.1249017821
 C       -13.5794439595       -2.3125530215       -1.0269843694
 O       -13.9510604933       -3.4865993969       -1.0206409370
 C       -12.0500951419       -1.8598670635       -1.1182798325
 C       -11.9056861090       -1.0159497041       -2.5018202601
 O       -12.7367383587       -1.0578784966       -3.3816300588
 C       -10.4772763946       -0.3570952964       -2.6435359119
 C       -10.2199102452        0.1884580239       -4.0830234361
 C        -8.9432427219        1.0386655826       -4.4378899934
 O        -8.7557031738        1.9947820488       -3.7057427148
 C        -8.0257339501        0.7384088510       -5.5647064435
 C        -8.9218983167        0.9561950559       -7.0166262536
 O       -10.1291602327        0.7805506676       -6.9363772449
 C        -8.2471695359        1.4313365317       -8.2924546348
 C        -9.1896756390        1.3834671769       -9.5955550796
 C        -8.6201836891        0.3786931530      -10.6916035613
 O        -8.1819349436       -0.6928552561      -10.3620474002
 C        -8.7424188928        0.7411788910      -12.1625463986
 C        -7.2546581562        0.9466110255      -12.7721808962
 O        -6.9912084075        2.0304684708      -13.2045294100
 C        -6.1315427176       -0.0757047580      -12.4575660695
 C        -4.9282602965        0.5304658880      -11.7720736048
 C        -3.6966185704        1.0177290976      -12.6019829174
 O        -3.6962365249        1.2088814934      -13.8024620304
 C        -2.4373967976        1.3966173284      -11.7242136758
 C        -1.7490170705       -0.0419358979      -11.3234063817
 O        -2.0270140911       -0.6179841337      -10.3657390690
 C        -0.7109158466       -0.6765263311      -12.4591991058
 C        -0.6537716240       -2.2108792599      -12.3029196228
 C         0.4644619495       -2.8188180787      -13.0965567762
 O         1.4932721754       -2.1701192838      -13.4325770250
 C         0.2178101167       -4.2804319684      -13.5037455761
 C         1.4551111989       -5.1879842442      -13.9093057360
 O         1.4155182346       -5.9683745794      -14.7927624536
 C         2.8101082193       -5.0696199090      -13.1546887984
 C         4.0294840945       -5.5603719342      -13.7846675800
 C         5.1251193411       -5.6630402961      -12.6549014051
 O         4.8471118686       -5.6017456969      -11.4628187128
 C         6.6732596185       -5.9367344220      -12.9572170042
 C         7.0806437806       -4.4146864026      -13.6619545028
 O         6.1254163310       -3.6105005883      -13.8125595505
 C         8.5557077879       -3.9369521666      -13.9893242144
 C         9.1312593215       -2.8939802168      -13.0901953410
 C         9.0893765645       -1.4645725819      -13.6439966203
 O         8.5864880195       -1.2221567666      -14.7317727947
 C         9.6515683154       -0.3430218942      -12.7047128075
 C         8.3748939090        0.6172095980      -12.4955409364
 O         7.8030404180        0.5700505086      -11.4915407983
 C         7.8322020712        1.4816415220      -13.6543979664
 C         6.6595068038        2.2911360765      -13.0704553542
 C         5.3144531054        1.4106072045      -13.2415150851
 O         5.3636075599        0.2917296433      -13.6725046176
 C         3.9588166405        2.0956677485      -12.8235102507
 C         2.9889549741        1.9049256722      -14.1545041903
 O         2.7951150347        2.8273129218      -14.8998001241
 C         2.3586793823        0.5525603990      -14.2361493606
 C         1.8030433053        0.1219884950      -15.6491645909
 C         2.9844353722       -0.4281582896      -16.5844240512
 O         4.1895675373       -0.4048650587      -16.3506094114
 C         2.5412882035       -0.8166276832      -18.0548686932
 C         3.7430320327       -1.3275940175      -18.9880586901
 O         3.8027209428       -2.5139538236      -19.2256469402
 C         4.8511985888       -0.3123763449      -19.6067039358
 C         6.2351275905       -0.9470370712      -19.8838673792
 C         7.0346252316       -1.0612548178      -18.5475479997
 O         6.6215151999       -0.5988376561      -17.4783823989
 C         8.1961164263       -2.1642942429      -18.6018920249
 C         7.4857868894       -3.4309936058      -17.8342383724
 O         6.7074596663       -3.3485454720      -16.9301814373
 C         7.6388330238       -4.7948275959      -18.3967940276
 C         8.5998314593       -2.6531607088      -20.0185973184
 C         9.4900534898       -1.8440802401      -17.8440172560
 C         1.4753571972       -1.9112601829      -17.8151347387
 C         2.0048835571        0.5401066855      -18.5889875819
 C         3.4155952438        1.3195368400      -11.5353301451
 C         4.0435047707        3.6222580360      -12.5361737284
 C         9.9698153848       -0.8499690905      -11.3310522834
 C        10.8047167507        0.3851466838      -13.3573915012
 C         7.3459186750       -6.1107077546      -11.6230196777
 C         7.0098794847       -7.0458988548      -13.9814426607
 C        -0.6850083247       -5.1064065483      -12.6266781129
 C        -0.4852780253       -3.9836920394      -14.9316877510
 C        -1.5490928162        2.3747134276      -12.5231553837
 C        -2.9843521949        2.0862327304      -10.4701743595
 C        -9.3108981954       -0.5798819522      -12.9218651849
 C        -9.5249331998        2.0464576691      -12.5681186682
 C        -6.6614243597        1.5837089272       -5.3336686648
 C        -7.6846185975       -0.7768720368       -5.5807844357
 C       -11.6040290653       -1.2053580478        0.1941772846
 C       -11.1745719132       -3.1168555478       -1.3670925039
 C       -17.2205966326       -2.3668059448       -4.9103939827
 C       -19.1802774860       -1.0845564110       -3.7110685668
 C       -19.3856095937       -7.0749822743        0.2971984771
 C       -19.2168556327       -5.5807056999        2.3543643295
 H       -17.9751279405       -8.1913601359        2.6854844527
 H       -16.5832306563       -7.4045144173        3.1900206790
 H       -16.4659203891       -8.6640724916        1.7947054722
 H       -20.5057983103       -4.4700423475       -0.6097095119
 H       -19.6140970289       -5.4298229368       -1.7768854408
 H       -19.3025966931       -2.2953883803       -1.0622894077
 H       -20.0864522177       -2.7561960178       -2.2531488252
 H       -14.8420559115       -0.4882921220       -3.1834250780
 H       -15.2393416147       -2.2817267283       -3.1205885752
 H       -15.3978996974       -1.4531432035       -0.3296376717
 H       -14.2719539859       -0.3034085137       -0.8849718182
 H        -9.5673764136       -0.9901589387       -2.3687712127
 H       -10.3396906546        0.4272837444       -1.8999635486
 H       -11.0362455117        0.8701846299       -4.3399273770
 H       -10.1688606978       -0.6389599765       -4.7837034474
 H        -7.3616704237        0.8105506456       -8.4344211177
 H        -7.9564514188        2.4816095971       -8.0836431201
 H        -9.5484014423        2.3596264230       -9.9732161193
 H       -10.1703625598        0.8666462497       -9.2692736963
 H        -5.7713326045       -0.4768988033      -13.3779884264
 H        -6.4455711894       -0.8490391848      -11.8190290905
 H        -4.6291892338       -0.1596579762      -10.9991582636
 H        -5.2314379463        1.4238343965      -11.1459793223
 H         0.3070738261       -0.3423695346      -12.3048359300
 H        -0.9470330515       -0.3922097937      -13.4987569460
 H        -1.6838263893       -2.6327107304      -12.4835401629
 H        -0.3073383689       -2.3931502707      -11.2064358440
 H         2.5301863576       -5.7375339011      -12.3809520271
 H         2.8913142753       -4.1732025926      -12.6030706972
 H         4.4814188799       -4.9292456396      -14.5762517586
 H         3.7175486953       -6.5348349945      -14.2679729180
 H         8.5569508527       -3.6144116568      -15.0661164455
 H         9.2715481504       -4.7997876205      -13.9192218854
 H        10.1422156357       -3.2062094679      -12.9389779609
 H         8.5588400406       -2.9218872669      -12.1139539041
 H         7.5675762340        0.8755476093      -14.5953543005
 H         8.6488935197        2.1785880121      -14.0476432415
 H         6.4665440792        3.1811641941      -13.6957182980
 H         6.9183042528        2.5221617901      -12.0805405859
 H         1.4077245745        0.5884413192      -13.6974088431
 H         3.0103144189       -0.1413288059      -13.8427979849
 H         1.5571689908        0.9980276870      -16.1744003066
 H         0.8239151385       -0.4061332820      -15.6923029259
 H         5.0876300502        0.6338922917      -19.0466289360
 H         4.3884284276       -0.0848328687      -20.5635427654
 H         6.7590767892       -0.1395356607      -20.3954594132
 H         6.2984373566       -1.9031892970      -20.4235508423
 H         7.7874813945       -4.8203083109      -19.5027629787
 H         6.8325479050       -5.5172415405      -18.0879538973
 H         8.5013711036       -5.2997417478      -18.0355174257
 H         9.3603478745       -3.4603549928      -19.9033058723
 H         9.0350153496       -1.7880503854      -20.5533552047
 H         7.8393473754       -3.1625374763      -20.4749105573
 H        10.0074847544       -2.7089367153      -17.5229292225
 H         9.2302897661       -1.1846846777      -17.0340195095
 H        10.1561085372       -1.2967197197      -18.4656427311
 H         1.7406668275       -2.7834591390      -18.3560301004
 H         0.4730577401       -1.6410608498      -18.1958855972
 H         1.4048929783       -2.1306276527      -16.7539366927
 H         2.7663095922        1.3063671126      -18.5628399635
 H         1.2038035364        0.9110715018      -17.9726883548
 H         1.3875162578        0.4972407886      -19.5471535419
 H         2.5176354865        0.6973166833      -11.6686120799
 H         3.0804982592        2.1726034985      -10.8659901903
 H         4.2367398926        0.9269595527      -10.8955323925
 H         4.6788781459        3.9228871713      -11.6672191141
 H         3.0272458137        4.0463614578      -12.4180415940
 H         4.4798411554        4.0933389388      -13.4072864844
 H        10.1694143368        0.0089606603      -10.7134862446
 H        10.8307638844       -1.3959447079      -11.2134085684
 H         9.2850065520       -1.4778994791      -10.7913046750
 H        10.3880389009        0.9017103634      -14.2366094021
 H        11.6112445713       -0.2795474658      -13.6377115134
 H        11.2306525292        0.9953933198      -12.6445263068
 H         7.3905195628       -7.1625679050      -11.2612380544
 H         6.8347146846       -5.4037689373      -10.9398357123
 H         8.3489959394       -5.8032368631      -11.7666151277
 H         6.7174516151       -7.9590073509      -13.5212043887
 H         8.0545877227       -7.1398616803      -14.2042121844
 H         6.4882374665       -6.9513645350      -14.9486764810
 H        -0.0946082033       -5.5457811061      -11.7651529261
 H        -0.8990710914       -5.9714618948      -13.2330474633
 H        -1.6155018576       -4.6333754064      -12.3048819002
 H        -1.3066209212       -4.7437891346      -14.9638316248
 H         0.0794740757       -4.1014525586      -15.9118287677
 H        -0.8957029124       -2.9431430766      -14.8246517377
 H        -0.8573577419        2.7754997593      -11.8413582794
 H        -2.0875551626        3.2222168777      -12.9728222521
 H        -1.0282107745        1.9441805120      -13.3952046083
 H        -3.5339924377        1.4480161196       -9.8138119002
 H        -3.4538096279        3.0889298101      -10.7475390382
 H        -2.0681954060        2.3084745250       -9.9504402826
 H        -8.6513435667       -1.4213103346      -12.5990396664
 H        -9.3051919788       -0.3652109075      -14.0108665090
 H       -10.3011752174       -0.7500726510      -12.6558069644
 H       -10.5999068578        1.8358474910      -12.4153557772
 H        -9.2436673449        2.1472093969      -13.6444392502
 H        -9.1857017523        2.8827283892      -11.9922207818
 H        -6.5957545626        1.9323407035       -4.3287106766
 H        -6.7331087303        2.5309266751       -5.8891065449
 H        -5.7311508340        1.0298412322       -5.6062224816
 H        -7.0617559965       -1.1002168087       -4.7688011152
 H        -6.9310930742       -0.9250913905       -6.4363762280
 H        -8.5510778668       -1.3418420850       -5.7954035584
 H       -11.9340506855       -1.8445118122        0.9845853264
 H       -11.8822768682       -0.2118696976        0.3941964162
 H       -10.4415763305       -1.1856842227        0.1898773085
 H       -10.1328850262       -2.7685481117       -1.2129039390
 H       -11.1390283619       -3.4284800549       -2.3498482477
 H       -11.4005311741       -3.7811611450       -0.5827306303
 H       -18.0532843873       -2.6755675835       -5.5775686673
 H       -16.5078713806       -3.1889035170       -4.7864738321
 H       -16.7145130320       -1.6461086201       -5.4172769451
 H       -19.4042116155       -0.5704853978       -2.8478293951
 H       -20.0381963413       -1.7620408856       -3.8623913402
 H       -19.0889088892       -0.3990099391       -4.6238616217
 H       -19.0230662720       -7.3486014366       -0.6950272927
 H       -20.4548527307       -6.7269120271        0.2228641724
 H       -19.4603035936       -8.0453522472        0.8707645486
 H       -19.0707143929       -6.3813834284        3.0708845169
 H       -20.2636551943       -5.4544619175        2.2793910622
 H       -18.6838748279       -4.7502780750        2.7515335255
 Na      -15.8216990713       -4.5054622351       -0.7942223111
 Na        6.2400573042       -1.4244314005      -15.2234406809
