232

 C       -18.4764675418      -12.9855547367       -0.5479832114
 C       -17.4807436161      -13.3109583062       -1.6693204735
 O       -17.6781913820      -12.7389743879       -2.7305597727
 C       -16.2524432703      -14.2683141892       -1.3167044718
 C       -15.2527349747      -14.3503603652       -2.5155400787
 O       -15.6674334728      -14.6121620400       -3.6114052452
 C       -13.6486397034      -14.4285439754       -2.3193781885
 C       -12.9860138123      -14.5797306178       -3.6878117952
 C       -13.0032000350      -13.2168672709       -4.4466976082
 O       -13.2036499905      -12.1915820388       -3.9361837292
 C       -12.6264131180      -13.1600721537       -6.0196539100
 C       -13.9429815548      -12.4342110960       -6.6456940758
 O       -14.9812304388      -13.0928665512       -6.4579924305
 C       -13.9803948840      -11.1107349332       -7.4187460466
 C       -15.3537597647      -10.4205576791       -7.4874567007
 C       -15.7997461331       -9.7879871510       -6.1504851670
 O       -16.1933955287      -10.4432847720       -5.1571784659
 C       -15.8107841043       -8.1283737499       -6.0165333555
 C       -14.9128501223       -7.4139222144       -7.0289323794
 O       -14.0440665019       -8.1455274144       -7.5467687545
 C       -14.9201047493       -5.9132697683       -7.1142978018
 C       -13.5876402303       -5.3501644508       -7.5433496768
 C       -13.8127946391       -4.0100232825       -8.2600877324
 O       -14.8797333427       -3.8614138187       -8.7680450674
 C       -12.5406074215       -3.1062534710       -8.6850923354
 C       -11.6488990198       -2.8208019386       -7.4948070684
 O       -12.1450067422       -2.7553181831       -6.3822203391
 C       -10.1751742834       -2.6779297084       -7.6711653515
 C        -9.6621421005       -1.5630868228       -6.7802438782
 C        -9.8201871508       -0.1088049689       -7.2752352106
 O       -10.1794813093        0.0540034918       -8.4510962733
 C        -9.0955487130        0.9429834897       -6.3174787273
 C        -7.5632412843        1.0558143801       -6.9317003349
 O        -6.7350528141        0.2002340777       -6.7975991955
 C        -7.3761535517        2.2334362374       -8.0634551965
 C        -5.8905554799        2.5515568005       -8.3977150043
 C        -5.6905973634        3.2122289778       -9.7659477626
 O        -5.6672623583        4.3792623298      -10.1118497270
 C        -5.5837358536        2.2038392037      -11.0311501854
 C        -4.1729723105        1.4779526913      -10.5572326932
 O        -4.1845106402        0.4201518669       -9.9506803209
 C        -2.9365939907        2.3411151243      -10.7421406329
 C        -1.6275857627        1.7469295373      -10.0553796511
 C        -0.1982173622        2.5022313024      -10.2034204290
 O         0.0818786787        3.3972567844      -10.9098499906
 C         1.0330544369        1.6808787871       -9.5375101463
 C         2.2862235925        2.6138266456       -9.5079890857
 O         3.1414865632        2.4980888549      -10.3664645485
 C         2.6147323672        3.5772914955       -8.3734142314
 C         3.8320985227        4.5027358135       -8.6908804370
 C         3.6051410646        5.5105621174       -9.7823080596
 O         2.4998986147        6.1066392410       -9.7944236621
 C         4.5720694169        5.7797502859      -10.9047777647
 C         4.2137972835        4.7243798218      -12.1044069518
 O         5.1748965482        4.0999549453      -12.5389134855
 C         2.7678636343        4.6860206862      -12.8089205218
 C         2.7078899094        5.4629958083      -14.1006342487
 C         3.2082326126        4.9662935457      -15.4106358586
 O         3.3810290543        3.7479029972      -15.6272393122
 C         3.3631054801        6.0887662703      -16.5651441222
 C         4.8683991536        6.1121536127      -16.9735612497
 O         5.2979447316        5.3684208656      -17.8978251071
 C         5.9168516109        6.8055196320      -16.0313940007
 C         7.3266490672        6.2716400549      -16.3729141342
 C         7.3672723357        4.7616858319      -16.5618537355
 O         6.8240321519        4.1102707911      -15.6797180749
 C         8.3882261379        4.0488017538      -17.5209663618
 C         9.5590100719        3.7331856997      -16.5678938042
 O         9.5586542158        3.9552840123      -15.3561573089
 C        10.8287941516        3.1309590549      -17.2065793316
 C        11.8581258237        2.7134097690      -16.1440480751
 C        11.9037020819        1.1958061458      -15.8907152643
 O        11.5162920213        0.4132258144      -16.7609538384
 C        12.1949430564        0.5421530299      -14.4879346535
 C        10.8873874195       -0.2459687105      -14.0210700356
 O        10.9907295975       -1.1694566257      -13.2582605296
 C         9.5122758153        0.4063705002      -14.5631249544
 C         8.3237988070       -0.3020198031      -13.8844025618
 C         7.1282983803        0.6063392987      -13.6688078997
 O         7.1724917605        1.7798832953      -13.9370408036
 C         5.7898929468        0.0199871817      -13.0261906082
 C         4.6797559792       -0.2278955310      -14.1677681627
 O         4.2385775055        0.7637363281      -14.7559749536
 C         4.1764909542       -1.6278982468      -14.4223628581
 C         5.9878807273       -1.2996117095      -12.2897086701
 C         5.1619971005        1.0889329101      -12.1053644070
 C        13.3864291735       -0.5148076162      -14.6866649380
 C        12.5265526763        1.5862600552      -13.3649787481
 C         7.6390204171        2.8258093730      -18.0825754752
 C         8.8144002768        5.0366804590      -18.7040494807
 C         2.4945285224        5.4898648682      -17.8026990241
 C         2.9155037807        7.5503777908      -16.1272097714
 C         4.4844481685        7.2633868999      -11.4702677428
 C         6.0447979983        5.7294879566      -10.5055787773
 C         0.7573457588        1.0209311703       -8.1799605852
 C         1.2638614694        0.5434884206      -10.5902469941
 C        -6.6565854534        1.1366405540      -11.0995904545
 C        -5.4259516328        2.8783593929      -12.4012550413
 C        -9.7997681168        2.2703732094       -6.4002598235
 C        -8.8107328761        0.3901355689       -4.8698447792
 C       -12.1246835028       -3.7836032849      -10.0936636436
 C       -13.1371331113       -1.6642411182       -9.0241737418
 C       -17.2830993591       -7.5650314963       -6.2323682250
 C       -15.2775455764       -7.7769250177       -4.5871637494
 C       -11.3129628697      -12.2587811469       -6.0171350154
 C       -12.5072508967      -14.4649399527       -6.7703648829
 C       -15.4699499518      -13.6733714105       -0.0580742295
 C       -16.7895208522      -15.7232613125       -1.1332379074
 H       -19.3404412579      -12.4228593149       -1.0048483047
 H       -17.9918580851      -12.4595447222        0.2351695582
 H       -18.7453956908      -13.9171670227       -0.1253234138
 H       -13.4846113407      -15.3024808626       -1.6681698517
 H       -13.2137732507      -13.5947207225       -1.8407926247
 H       -13.2509311464      -15.4956291507       -4.2375406389
 H       -11.9548415249      -14.6634243793       -3.4090836642
 H       -13.7178593894      -11.3713640143       -8.4846929383
 H       -13.3535027977      -10.4008575366       -6.9450135554
 H       -16.0315483275      -11.1275850598       -7.8934791416
 H       -15.2894237460       -9.6537864952       -8.1946381104
 H       -15.1030289588       -5.5693653359       -6.0629022025
 H       -15.7128689600       -5.4650358867       -7.7425586707
 H       -13.1752065749       -6.1264290857       -8.2139087065
 H       -12.8581283588       -5.2095834348       -6.6743017935
 H        -9.9082512761       -2.4180551147       -8.7108182274
 H        -9.6032506422       -3.5857776921       -7.3492021828
 H        -8.5880543074       -1.5874741452       -6.7804242772
 H       -10.0416979794       -1.6142554534       -5.6982066058
 H        -7.8712556885        3.1882763612       -7.6807629134
 H        -7.8430745086        1.9810973188       -9.0185339859
 H        -5.2738763526        1.6310223102       -8.2974048533
 H        -5.5241162719        3.2100157866       -7.6734921119
 H        -3.2002148748        3.3432255203      -10.3172421821
 H        -2.6576789236        2.6542929903      -11.7047420415
 H        -1.5015273432        0.7991480601      -10.4780784693
 H        -1.8748665722        1.5739897193       -9.0504883017
 H         2.8457460211        2.9186065754       -7.6103290526
 H         1.9018788656        4.2845618620       -8.0417844061
 H         4.7056595183        3.8708752644       -8.9967492785
 H         4.1388229177        5.0070269355       -7.7544680669
 H         2.1253056621        5.1413180924      -12.0504595905
 H         2.5163894063        3.6464067398      -12.9067061744
 H         3.1242046728        6.4956157771      -14.0472601701
 H         1.6406250586        5.6693078999      -14.3162075367
 H         5.4930400477        6.6210236095      -15.0088779518
 H         5.8358175604        7.8948440098      -16.1224325162
 H         7.8448257879        6.5219496682      -15.4489350684
 H         7.7976591860        6.8829186817      -17.1133233229
 H        11.3450238215        4.0020025011      -17.7419669823
 H        10.7600801177        2.4550237544      -18.0736199926
 H        11.6823001413        3.2344561063      -15.1420053976
 H        12.8141106382        2.8184348342      -16.6066165568
 H         9.4669246187        0.2371802887      -15.6784483891
 H         9.5126150372        1.4396240000      -14.3442380790
 H         8.5679325297       -0.5222194347      -12.8062646236
 H         7.9168013084       -1.1498742159      -14.4381474226
 H         4.9252386623       -2.2177546988      -15.0294287643
 H         3.3584853531       -1.5583687838      -15.2108921612
 H         3.8422482091       -2.2028265364      -13.5739097575
 H         5.1671965904       -1.9202809673      -11.8399192662
 H         6.6377420455       -1.2334252223      -11.4373365584
 H         6.4365600736       -1.9305720479      -13.0618085343
 H         4.3628120863        1.6768657015      -12.7129195303
 H         5.8831216208        1.7460396479      -11.6021271124
 H         4.6703873904        0.4954923974      -11.3023438992
 H        14.2955011457        0.1120502737      -14.7878148175
 H        13.1585677067       -1.2250437167      -15.5159096179
 H        13.6408214392       -1.1524164726      -13.8527997486
 H        13.4736786124        2.1746760011      -13.5574567948
 H        12.5981736809        1.0266134293      -12.3836398367
 H        11.6385156335        2.2221700639      -13.2053022792
 H         6.6970572528        2.7813075997      -17.4483861121
 H         8.0983815247        1.8563251278      -18.1494283120
 H         7.5433187194        3.0892605665      -19.1429424607
 H         9.2883036038        5.9229147267      -18.5289495858
 H         8.0438254715        5.2950247615      -19.3935503748
 H         9.5014099497        4.3859577151      -19.3924815226
 H         1.5937559819        5.0381429726      -17.3470422728
 H         3.1805613749        4.8608031474      -18.2633057426
 H         2.2201621110        6.1971886067      -18.6598712937
 H         2.8739545030        8.1578087648      -16.9893714175
 H         3.3222942696        7.9773723498      -15.2336190196
 H         1.8343264071        7.4194390618      -15.8290701289
 H         4.0991471351        7.8782804263      -10.6829354457
 H         3.8299633394        7.5103999521      -12.3504441071
 H         5.4316199840        7.7759889140      -11.7596354818
 H         6.7312195451        5.9190977043      -11.4015408233
 H         6.3402620287        4.6739239017      -10.3259529446
 H         6.0265784116        6.4921263411       -9.7778813430
 H         0.7240457209        1.8273293345       -7.4334692107
 H         1.5781021326        0.3799768931       -7.9548242247
 H        -0.0796439043        0.4028817029       -8.1709116730
 H         0.4346880014       -0.1519939130      -10.5927406077
 H         2.2320406021        0.1092043353      -10.1738038547
 H         1.3530072512        1.0316749529      -11.5648259269
 H        -6.7426404885        0.5790658910      -10.1776044582
 H        -6.4655912496        0.4694882381      -11.9143279692
 H        -7.5870585144        1.5402848803      -11.2484897655
 H        -5.6459604268        2.2144801817      -13.1949998466
 H        -4.4463453028        3.3414765888      -12.5741076786
 H        -6.1240995081        3.7236522041      -12.4882803621
 H       -10.8699505503        2.1483887752       -6.0518957441
 H        -9.7229045396        2.7439744387       -7.3803982180
 H        -9.3813593990        2.8964782566       -5.6771490451
 H        -8.4856387908        1.2767046523       -4.3310447764
 H        -7.9615548531       -0.2584799286       -5.0584675316
 H        -9.7589768170        0.1128078829       -4.3554594402
 H       -11.8537756494       -2.9625148454      -10.7932170748
 H       -13.0136992266       -4.2921262698      -10.4109399353
 H       -11.3080983521       -4.4976196275       -9.8337018793
 H       -13.8979450956       -1.6640624286       -9.7658817743
 H       -12.3543161709       -1.0087775849       -9.3073224239
 H       -13.7025410923       -1.3125803551       -8.1826945173
 H       -17.4657780145       -7.5296958731       -7.3094829134
 H       -17.4185562275       -6.5143546942       -5.8812817531
 H       -18.0971464057       -8.1231479544       -5.8140052654
 H       -14.3197586763       -8.1852157643       -4.4646094868
 H       -15.8603903559       -8.3376919528       -3.7913720385
 H       -15.3783911635       -6.7254471445       -4.4412946123
 H       -11.3528885878      -11.2882730125       -5.6084579493
 H       -10.8597314421      -12.0154327211       -6.9627860226
 H       -10.5222121727      -12.6750741601       -5.4025143290
 H       -13.4767641126      -14.9441489788       -6.8036377759
 H       -11.8118724300      -15.2437062674       -6.3793182583
 H       -12.3126182945      -14.3353404872       -7.7784857431
 H       -14.9210108714      -12.7213695531       -0.1933587088
 H       -14.7294836366      -14.4550080861        0.1862821175
 H       -16.2139263621      -13.4839802342        0.8524912100
 H       -17.7218940737      -15.9163294315       -1.7648961813
 H       -17.1761009290      -15.9174209579       -0.1095877787
 H       -16.1139740952      -16.4982015375       -1.4424810097
 Na      -16.2630295893      -12.7067816122       -4.5079163523
 Na        5.2435163446        2.8615407716      -14.4318919190
