232

 C       -16.6182811160       -8.0795036110        1.9337517256
 C       -16.9283432708       -6.6837019726        1.2588281905
 O       -16.0459811363       -6.1530902796        0.6525438864
 C       -18.4415148995       -6.0215167836        1.2056116059
 C       -18.4139746389       -4.6260712109        0.4286007741
 O       -17.4761680405       -3.8586564223        0.5520109429
 C       -19.4193965171       -4.4614966006       -0.6930838652
 C       -19.3045350241       -3.0818845232       -1.4590914602
 C       -18.1448576160       -2.9894038681       -2.4698701922
 O       -17.3105015232       -3.8852274893       -2.5586946866
 C       -17.9821885554       -1.8144936624       -3.4302438534
 C       -16.9171234069       -0.8875464180       -2.6220040184
 O       -17.2482736646       -0.0412762523       -1.8584599252
 C       -15.3733022370       -1.2887262768       -2.6702388285
 C       -14.8869662633       -1.5490423700       -1.1730360065
 C       -13.5783963945       -2.3698060178       -1.1275089870
 O       -13.6105557930       -3.6220952674       -1.1821612041
 C       -12.2078546512       -1.6578409274       -1.2039677266
 C       -11.9237936223       -0.9177826789       -2.6755588711
 O       -12.7552400791       -1.0663105522       -3.5334725471
 C       -10.7245585130        0.1395424657       -2.7873641267
 C       -10.2255421526        0.1984832759       -4.1567792880
 C        -8.9835095101        1.0860408386       -4.4491761207
 O        -8.6115473128        1.9835251962       -3.6951250538
 C        -8.2438158083        0.7482221527       -5.7685168712
 C        -9.1140663037        0.8777686170       -7.1110404680
 O       -10.2839372782        0.6944934145       -7.0920705160
 C        -8.2709930091        0.9601637962       -8.3888825194
 C        -9.0857411991        1.1543466480       -9.6831480541
 C        -8.5253754511        0.1249184624      -10.7235090248
 O        -7.9351331384       -0.8666563952      -10.4501247814
 C        -8.7754178070        0.4233710005      -12.1797953609
 C        -7.4488131408        1.2191609710      -12.6462835624
 O        -7.4383808607        2.2754752030      -13.1972890985
 C        -6.0823677511        0.4768375849      -12.4586045072
 C        -4.9512346527        0.9592419767      -11.5807367953
 C        -3.6352857832        1.1316035891      -12.3084292659
 O        -3.5078936579        0.8404796710      -13.5312502329
 C        -2.3564516517        1.5781322214      -11.6408113575
 C        -1.6823017747        0.0249338538      -11.2850092103
 O        -2.0647329809       -0.6438765541      -10.4022276363
 C        -0.7091741679       -0.5990374295      -12.3294215083
 C        -0.9050480332       -2.1910890894      -12.4732369575
 C         0.3342236710       -2.8598944814      -13.0341342122
 O         1.4059231291       -2.2909161363      -13.2681906857
 C         0.0580718542       -4.3146462656      -13.5755847461
 C         1.3749190309       -5.0190605218      -13.9874992434
 O         1.7855706911       -5.0788610481      -15.1417795059
 C         2.3929837060       -5.3015120242      -12.8312094504
 C         3.7295182161       -5.6502963513      -13.3276169329
 C         4.8915329583       -5.8018707979      -12.1733368355
 O         4.7319522323       -6.3365096166      -11.1188397717
 C         6.2947486016       -5.5825226675      -12.7386310365
 C         6.6913057808       -4.1780133753      -13.3020666095
 O         5.9429699625       -3.2357558911      -13.5558829114
 C         8.2089167879       -3.9808190893      -13.5690969327
 C         8.9459305962       -2.8462422386      -12.8212198852
 C         8.9898464982       -1.5441072254      -13.5815714040
 O         8.6145499989       -1.5533241465      -14.7502709492
 C         9.6373407828       -0.3763889321      -12.9681646782
 C         8.3544361292        0.4676569897      -12.5132758247
 O         7.8204900382        0.3184029976      -11.4422585842
 C         7.9410249604        1.5587558236      -13.5849165082
 C         6.5871494791        2.2816236137      -13.2232585793
 C         5.3818804316        1.2788901092      -13.4008812686
 O         5.4518575088        0.1213636169      -13.7196354711
 C         4.0581861482        1.8838221711      -12.9243711656
 C         3.0071090964        1.7890203613      -14.0769451367
 O         2.7438131878        2.8427556994      -14.5767445320
 C         2.5526173167        0.3904592623      -14.6189971853
 C         2.0385491485        0.6061057493      -16.0698406740
 C         2.9487226754       -0.3012531388      -16.9516717634
 O         3.9638712017       -0.8472602975      -16.5308404523
 C         2.4633006502       -0.7319696059      -18.3966780207
 C         3.8220624988       -1.2504682533      -19.0727650118
 O         3.9331015101       -2.3139748661      -19.6581621586
 C         5.0015797286       -0.2112578592      -19.2057362337
 C         6.3837777011       -0.7988529190      -19.6922306755
 C         7.2392729944       -1.2307595373      -18.4815489018
 O         7.1825056947       -0.6143140731      -17.4015836999
 C         8.2261220796       -2.4199680493      -18.5492930016
 C         7.7044064464       -3.6743593065      -17.6831397238
 O         7.3356812137       -3.4631102010      -16.5513892238
 C         7.6594286802       -5.0248772444      -18.2852597398
 C         8.5200669652       -2.9304672387      -19.9893661226
 C         9.6686328364       -2.0952805457      -17.9199703564
 C         1.4501359722       -1.9087232222      -18.1365674271
 C         1.7547379102        0.4697758856      -19.2695917999
 C         3.5690205137        1.1211643038      -11.7445109582
 C         4.0686556690        3.4405692091      -12.3810707955
 C        10.4983164568       -0.7424662224      -11.7406304994
 C        10.5276524911        0.5297529857      -14.0036048002
 C         7.3970553873       -5.9679585295      -11.5911315283
 C         6.4129879262       -6.5619485538      -14.0298010935
 C        -0.7086955591       -5.1381908115      -12.4495987754
 C        -0.8896050627       -4.1983562527      -14.8677946052
 C        -1.3820501440        2.3547234515      -12.6680588090
 C        -2.4790178929        2.4077918233      -10.2968249893
 C        -8.9343182369       -0.8903966036      -13.0213969337
 C        -9.9345856695        1.4146847175      -12.3339389177
 C        -7.1216812250        1.7509497674       -5.7669311220
 C        -7.6238952348       -0.7054108177       -5.7126154208
 C       -11.8452717287       -0.6829522595       -0.0061310925
 C       -11.1107937081       -2.7003784344       -1.1361278603
 C       -17.3662351808       -2.3364683270       -4.7656108106
 C       -19.2993363236       -1.0467305894       -3.6360327840
 C       -19.2936550458       -7.1399758437        0.6107726399
 C       -18.8528451876       -5.7843595630        2.7060435053
 H       -16.2642939729       -8.7830236663        1.1976585644
 H       -17.5340923316       -8.5420576510        2.3059721691
 H       -15.8275052108       -7.9481018302        2.7432867602
 H       -20.4110716738       -4.6256509650       -0.3573271820
 H       -19.2010430905       -5.2954280628       -1.3672965204
 H       -19.4198882038       -2.1525756255       -0.8642231097
 H       -20.2337953308       -2.9343707854       -2.0019801396
 H       -14.9486793639       -0.3433133396       -3.1538916284
 H       -15.2832530353       -2.0597989409       -3.4284064663
 H       -15.6738109969       -2.0524423763       -0.6116852791
 H       -14.7910027992       -0.5593063765       -0.7760649072
 H        -9.9232950289       -0.0867754177       -2.0018616702
 H       -11.1528678467        1.0972397292       -2.3912195072
 H       -11.0376383571        0.3863998918       -4.8465016736
 H        -9.8476143186       -0.7861723128       -4.3946941464
 H        -7.6858403513        0.0782970788       -8.4593537851
 H        -7.5985735242        1.7956000130       -8.3077589104
 H        -9.1255482861        2.1831194203      -10.0395177510
 H       -10.1876239110        0.9576418906       -9.5911200868
 H        -5.6466706998        0.5071959234      -13.4908768354
 H        -6.2116315919       -0.5861553093      -12.2408481583
 H        -4.7951825424        0.4493436433      -10.6635935547
 H        -5.2176253057        1.9285746622      -11.1486228315
 H         0.3008006874       -0.4149392777      -12.0292196706
 H        -0.8669700936       -0.1695449245      -13.3145862516
 H        -1.7825105726       -2.2389527737      -13.1308915699
 H        -1.2150737874       -2.8092629223      -11.5353749449
 H         1.9990820693       -6.1129221494      -12.2681461165
 H         2.4753552667       -4.4904824771      -12.1456017311
 H         4.1377308070       -4.9132298434      -14.0112607810
 H         3.8976503958       -6.5355874773      -13.9702685311
 H         8.3761872703       -3.7334033307      -14.6486144140
 H         8.7233652811       -4.9224982111      -13.3896777551
 H         9.9824824851       -3.0999425126      -12.6410471913
 H         8.5617342381       -2.7785486274      -11.7504230813
 H         7.8523746442        1.2019652064      -14.6471888834
 H         8.7518746556        2.3267832944      -13.5962451708
 H         6.4197086862        3.0514306791      -13.9348116488
 H         6.6724404787        2.5934345270      -12.2401238986
 H         1.6655698040        0.0276363159      -14.0211621051
 H         3.3206347949       -0.3774440865      -14.6068019290
 H         1.9282599331        1.6785190743      -16.2519874978
 H         1.0388239498        0.1170488293      -16.3164304079
 H         5.0583271549        0.3911343334      -18.2984913996
 H         4.7431168912        0.4329339479      -20.0227164051
 H         6.9317786433       -0.0085745919      -20.2097595606
 H         6.1601149781       -1.6235590842      -20.4123829568
 H         6.7546786583       -5.0374388795      -19.0075571186
 H         7.5665649365       -5.9167090602      -17.6425843215
 H         8.4855251485       -5.2721471596      -18.9553847310
 H         8.9539471683       -3.8840830155      -19.8799032444
 H         9.3689444576       -2.3081941128      -20.4015811510
 H         7.6288264166       -3.0452817943      -20.6898551557
 H        10.3332885439       -2.8044180922      -18.3766349611
 H         9.6910163964       -2.1662452262      -16.8110235193
 H         9.9252342186       -1.0470796379      -18.1176868729
 H         0.9960628612       -2.1457987053      -19.0667602208
 H         0.6890172174       -1.6486391608      -17.3336525448
 H         1.9638426206       -2.7219022666      -17.6642393365
 H         1.1435019872        1.1363762744      -18.6814688318
 H         1.0836649685        0.0365128753      -19.9962912808
 H         2.4786878789        1.2168217597      -19.7164583364
 H         3.8905770192        0.1004082334      -11.7209121021
 H         2.4737154875        1.2276253494      -11.7112190416
 H         3.8589665878        1.5622849797      -10.7697150086
 H         4.6728949391        3.5068783033      -11.4684121948
 H         3.0414183441        3.8175665405      -12.0544383469
 H         4.3227299661        4.2018347258      -13.1180341688
 H        11.2111480123        0.0611546944      -11.4122634390
 H        11.1326250970       -1.5744791859      -11.8348979716
 H         9.9724107554       -0.9701256816      -10.8265763046
 H        10.2275113670        0.3502854040      -15.1070473081
 H        11.5583817816        0.1158676357      -13.9541051626
 H        10.5426863588        1.5736866203      -13.7636685804
 H         6.9139137029       -6.5556741617      -10.7785552872
 H         7.8339918848       -5.0389140283      -11.2330759657
 H         8.1799343033       -6.4943276242      -12.0370360718
 H         6.1598573758       -7.6295932705      -13.7408760095
 H         7.4701616658       -6.6257985954      -14.4298776204
 H         5.6906930984       -6.1742643086      -14.7779602725
 H        -0.2251018425       -4.8483797340      -11.4684578601
 H        -0.3660669262       -6.1470925178      -12.7465271755
 H        -1.7740805941       -4.9385522286      -12.2932816907
 H        -1.6345314807       -5.0328199320      -14.8816982764
 H        -0.2364985950       -4.0605318301      -15.7607997479
 H        -1.6202652744       -3.3624168814      -14.8018637595
 H        -0.3494405154        2.1516020590      -12.6389901932
 H        -1.5839810412        3.3939396690      -12.5621550611
 H        -1.7256517444        2.1266748073      -13.6947088656
 H        -3.0605793828        1.8763564061       -9.5665696973
 H        -3.0046110422        3.3703278319      -10.5616751842
 H        -1.5119852627        2.7659461019      -10.0166173087
 H        -8.2439297001       -1.5908640779      -12.4789400941
 H        -8.5589100154       -0.6336832779      -14.0260150338
 H        -9.9934509962       -1.2192774211      -13.0875860594
 H       -10.8115742211        0.9806813427      -11.8659065321
 H       -10.1397519570        1.4577134178      -13.4085755606
 H        -9.6148078946        2.3167730423      -11.9084372255
 H        -7.5163394505        2.7636036593       -5.6637535987
 H        -6.3882009560        1.6486804238       -6.5583021611
 H        -6.5163946909        1.5079654766       -4.8751489426
 H        -7.1636396676       -0.8770184923       -4.7534214928
 H        -6.7862346547       -0.7491171873       -6.5022742770
 H        -8.3167892352       -1.4628670754       -5.9263863952
 H       -12.0763137595       -1.2236585591        0.9251909273
 H       -12.5759475910        0.1357689743        0.0522218512
 H       -10.7753162499       -0.2763204897       -0.0153012270
 H       -10.1525935716       -2.2435297123       -1.2897891922
 H       -11.2401499411       -3.3257042781       -2.0081870700
 H       -11.2723111279       -3.2662054382       -0.2639583925
 H       -18.1633373822       -2.5753743014       -5.4482974953
 H       -16.7606084848       -3.2241691170       -4.6942508399
 H       -16.8599605493       -1.6100174883       -5.3390725225
 H       -19.8506665966       -0.8076989595       -2.7135773158
 H       -19.9896647597       -1.6401998840       -4.2783350659
 H       -19.0688880271       -0.0969123859       -4.1811158240
 H       -19.1980258826       -7.3482189187       -0.4501787950
 H       -20.4192741293       -6.8487880801        0.6282037658
 H       -19.0210717326       -8.0613707361        1.0563985507
 H       -18.7591236369       -6.8127615877        3.1603251297
 H       -19.8179473578       -5.3391940757        2.9007986910
 H       -18.0896168919       -5.1702787937        3.1465444945
 Na      -15.6277074187       -4.6025475290       -0.9107638245
 Na        6.2834240290       -1.5429174032      -15.1946945928
