232

 C       -16.4175291771       -8.1469566054        1.9253401849
 C       -16.6416378000       -6.8635998197        1.0668192981
 O       -15.9787933671       -6.4989804399        0.1663623237
 C       -18.1225686679       -6.0375034064        1.2153393272
 C       -18.1455931423       -4.7059284218        0.3440601709
 O       -17.2891068295       -3.8907209439        0.5159125074
 C       -19.3115382850       -4.4005019937       -0.5316077876
 C       -19.2534802253       -2.9999276165       -1.1007766033
 C       -18.2813668196       -2.9943417952       -2.3088463956
 O       -17.4683265014       -3.9036410769       -2.4249088645
 C       -18.1543649015       -1.7543808957       -3.1682139042
 C       -16.9501403326       -0.8793635125       -2.5487781671
 O       -17.0687975272        0.2476935132       -2.1435255713
 C       -15.5611342315       -1.5577598167       -2.6915941321
 C       -14.8562277893       -1.2154321240       -1.3415310547
 C       -13.5264177152       -2.0828478262       -1.2142830909
 O       -13.5283217977       -3.3479087681       -1.2072445705
 C       -12.1140975777       -1.3068140609       -1.3127501658
 C       -12.1704931439       -0.7979893052       -2.8155404673
 O       -12.9129060622       -1.2681542585       -3.6914193453
 C       -11.0056297826        0.1871341768       -3.0426423947
 C       -10.3441525849        0.0440106232       -4.3926585091
 C        -9.0963453660        0.9064646756       -4.5267230338
 O        -8.9895691992        1.7192473781       -3.6421131898
 C        -8.1199517516        0.8574618636       -5.7615859819
 C        -9.0266517182        0.7887608340       -7.0562851026
 O       -10.1998061484        1.0415943124       -7.0968638944
 C        -8.2539586880        0.5002535265       -8.3668604002
 C        -9.1246798094        0.6241096347       -9.6232923544
 C        -8.4809735331       -0.1918765249      -10.8285989285
 O        -7.7540581368       -1.1381837026      -10.5973291336
 C        -8.6942698393        0.2254055587      -12.2840030901
 C        -7.4333489158        1.2877614017      -12.5101965096
 O        -7.6884990992        2.4570270296      -12.2544326387
 C        -5.9887622012        0.8887349770      -12.6289046258
 C        -4.9196490781        1.9018595997      -12.5612771428
 C        -3.5529182449        1.2374244467      -12.6192866086
 O        -3.2691895731        0.4835535681      -13.5755456689
 C        -2.3898538713        1.5031622318      -11.6101192129
 C        -1.7691043333        0.1058330197      -11.2994203144
 O        -1.9440828317       -0.4341015031      -10.2023477470
 C        -1.0516163670       -0.6068528338      -12.4284630597
 C        -1.3095607127       -2.2134041904      -12.3821295697
 C        -0.1172669992       -2.8813784721      -12.9692157967
 O         0.9374867987       -2.3048574275      -13.0695453460
 C        -0.1694410613       -4.3261729992      -13.4970240001
 C         1.3099500918       -4.6613998520      -13.8813950214
 O         1.7021249462       -4.1793923971      -14.9590606262
 C         2.2494597342       -5.2291533223      -12.8647251142
 C         3.6681734516       -5.1495528895      -13.3763464603
 C         4.6861981931       -5.5937980990      -12.2698582721
 O         4.3882638143       -6.0327451388      -11.1958068505
 C         6.1911419805       -5.6877594828      -12.6556755145
 C         6.6056623466       -4.2267046427      -13.1489849427
 O         5.7827671813       -3.4296406047      -13.5038443058
 C         8.1359755655       -3.8777746551      -13.1173325150
 C         8.4743749933       -2.4831314096      -12.4873717398
 C         9.1053841673       -1.5517950526      -13.5280859430
 O         8.7524300935       -1.6443491140      -14.6886354781
 C         9.9283164731       -0.2352404604      -13.1294706205
 C         8.6893421788        0.6868032719      -12.7377307292
 O         8.1038508635        0.4647451564      -11.6205940367
 C         8.0172750324        1.6248725584      -13.7851625354
 C         6.6781919875        2.2206256044      -13.2090002517
 C         5.4870169853        1.1795495906      -13.3391705494
 O         5.4296979046        0.1778292844      -13.9984353864
 C         3.9952423061        1.7080659757      -12.7544417871
 C         3.0792980254        1.8341093062      -14.0312016213
 O         2.6206149631        2.8381795026      -14.5968223192
 C         2.7320829942        0.4368329187      -14.5829142466
 C         2.5127131494        0.4338466889      -16.1822070246
 C         3.2871858341       -0.6783253319      -16.9785731613
 O         4.1892782027       -1.2616302727      -16.4832351788
 C         2.8278700451       -0.9121623521      -18.4974627075
 C         4.0295000631       -1.1833745893      -19.4205910569
 O         4.1330556999       -2.1191358536      -20.1707884735
 C         5.1609837417       -0.0893767433      -19.2781660381
 C         6.4360933911       -0.7687947282      -19.7146593280
 C         7.1676589489       -1.3885123095      -18.5028135310
 O         7.0371275270       -0.7878278360      -17.4214054496
 C         8.1211515023       -2.5689860594      -18.5486343339
 C         7.5207637113       -3.8432103680      -17.6259548212
 O         7.1051495704       -3.5791175576      -16.5379729379
 C         7.6703265951       -5.2467396888      -18.2300843370
 C         8.4604955830       -3.0507029387      -19.9577318104
 C         9.4046416026       -2.1348200551      -17.8085241198
 C         1.8646493163       -2.1403449619      -18.7627778080
 C         2.2048239039        0.3483031282      -19.1516369463
 C         3.4504961386        0.5105780760      -11.8747351531
 C         3.9424163568        2.9526776711      -11.8997206059
 C        10.8712650734       -0.3951121157      -11.8920893010
 C        10.8341961226        0.2376106378      -14.2780250206
 C         6.9492057805       -6.1885073165      -11.4063075977
 C         6.4565307121       -6.6285697174      -13.7916786261
 C        -0.8017747365       -5.1953598985      -12.3252904094
 C        -1.0005553655       -4.4480236308      -14.7225608946
 C        -1.4560239804        2.4953173481      -12.3623605871
 C        -2.8022717826        2.1938295778      -10.3318547378
 C        -8.3495126165       -0.9992392175      -13.1666759809
 C       -10.0354665945        0.8885786958      -12.5650588533
 C        -7.1839641216        2.0267294044       -5.5566433835
 C        -7.2940800007       -0.4759277169       -5.5013830989
 C       -12.2216927569       -0.1435165488       -0.3020065034
 C       -10.9806521916       -2.3023241551       -0.8896133981
 C       -17.6699015128       -2.1833847937       -4.5292573335
 C       -19.5391218280       -1.1026456625       -3.2780652288
 C       -19.1525747132       -7.1587961398        0.9102049826
 C       -18.2472471995       -5.5811127966        2.7030201516
 H       -15.4870747815       -8.5486143041        1.5833946622
 H       -17.1615838581       -8.8825528940        1.6573196023
 H       -16.5379440603       -7.9847745530        3.0048559676
 H       -20.0830003399       -4.5624025097        0.2117347935
 H       -19.5281164379       -5.1061450194       -1.3399488924
 H       -18.9925883954       -2.2642659577       -0.3218831112
 H       -20.2465914199       -2.7126562549       -1.4667468712
 H       -15.0502081622       -1.0573477840       -3.5549723978
 H       -15.6083551747       -2.6275975592       -2.9797856714
 H       -15.4407955900       -1.5572125634       -0.5022595464
 H       -14.5503660310       -0.2092852672       -1.2522738248
 H       -10.3042022344       -0.0892228265       -2.2152884084
 H       -11.4139555567        1.2121118790       -2.8273769228
 H       -11.0495845015        0.2641171914       -5.1682206774
 H       -10.1957531100       -1.0017404963       -4.5534787897
 H        -7.7204216509       -0.4277893645       -8.3403166854
 H        -7.4832823332        1.2755624494       -8.4096995703
 H        -9.3046157521        1.6496926082       -9.8715749803
 H       -10.1214141516        0.2349532735       -9.3714585520
 H        -5.7444149663        0.2311934750      -13.5299445772
 H        -5.6976721085        0.1657198624      -11.8142939071
 H        -5.0119256667        2.5331793868      -11.6784292812
 H        -4.8893189613        2.6261658522      -13.3755478271
 H        -0.0039463723       -0.4323526344      -12.6612580574
 H        -1.6872476138       -0.1911739473      -13.2132654606
 H        -2.1932867000       -2.4992756982      -12.8698925511
 H        -1.5769731996       -2.4091251229      -11.3006846699
 H         1.9712101958       -6.2841070417      -12.6947706567
 H         2.1335139509       -4.5952881231      -11.9771724021
 H         3.9267348946       -4.1530368700      -13.7142856696
 H         3.9546579583       -5.6377011770      -14.3376877802
 H         8.5436344240       -3.9116831314      -14.1260929934
 H         8.6938387649       -4.5995432823      -12.6055129107
 H         9.0640706714       -2.5812787398      -11.5908855651
 H         7.6590659758       -1.8605819967      -12.0059982056
 H         7.7654363727        1.0668972175      -14.6694522340
 H         8.6532298865        2.4076805301      -14.1461605325
 H         6.4069178213        2.9981095548      -13.8416520738
 H         6.8056658960        2.4536871708      -12.1954029504
 H         1.7229011989        0.1282525843      -14.1159275513
 H         3.4474596171       -0.3806133921      -14.3126396246
 H         2.7823711560        1.4198541231      -16.6268054746
 H         1.3717109915        0.2800278662      -16.3397387305
 H         5.3423860198        0.1497864549      -18.2411898598
 H         4.8964161239        0.8156608557      -19.7746576665
 H         7.1864950684       -0.2469347576      -20.2878216636
 H         6.1773141559       -1.6551432454      -20.3368740124
 H         7.2584050138       -5.3478883968      -19.2327620861
 H         7.1942411841       -6.0553218923      -17.7717190706
 H         8.7354762716       -5.4906055689      -18.3594908475
 H         9.1032714925       -3.8757886864      -19.9487796865
 H         8.8930651287       -2.2694943417      -20.6082604023
 H         7.4111145045       -3.1643938431      -20.4902559913
 H         9.8569485596       -3.0444888920      -17.3892202881
 H         9.2559569759       -1.4772649281      -16.9031681858
 H        10.1339282548       -1.6996748029      -18.5490678256
 H         1.9191393166       -2.3457755195      -19.8196708915
 H         0.8275098699       -1.8503701783      -18.3781663012
 H         2.2129288913       -3.0324030674      -18.2850710273
 H         1.1638715931        0.5075212084      -18.9481963189
 H         2.1935359511        0.1793735298      -20.2096784349
 H         2.7500044084        1.2557306584      -18.8355032968
 H         3.3078883938       -0.4288609013      -12.3105223090
 H         2.5406544846        0.8354924562      -11.4017468609
 H         4.1538099617        0.2893109164      -11.0723374397
 H         4.6630865438        2.9686108129      -11.1195177292
 H         2.9296468691        3.1285504253      -11.4235398757
 H         4.1623291770        3.7941557444      -12.5537525157
 H        11.1159695073        0.7007817504      -11.5761447676
 H        11.8958491362       -0.8218036346      -12.0202771980
 H        10.4620199480       -0.7068636364      -10.9556742873
 H        10.3459588105        0.9150765225      -15.0414074302
 H        11.2125880575       -0.6792185376      -14.7886673524
 H        11.7373829647        0.8583855970      -14.0120889081
 H         6.6510968390       -7.2408476989      -11.2269053159
 H         6.6553523693       -5.6027584039      -10.5383987143
 H         7.9729857622       -6.0399150337      -11.5841380803
 H         6.1697159002       -7.6879747103      -13.5404482758
 H         7.5380553298       -6.5679673969      -13.9709812307
 H         5.9157409499       -6.3447742201      -14.6553155631
 H        -0.2706915420       -5.0941209497      -11.3729202256
 H        -0.8310176445       -6.2130789293      -12.7433209658
 H        -1.8375468057       -4.8852399507      -12.3365354416
 H        -0.6090071995       -5.1461360023      -15.4472224906
 H        -1.0355426108       -3.5182761199      -15.2081655720
 H        -1.9683793661       -4.7493213291      -14.4493704575
 H        -0.5286521208        2.6478122313      -11.7869820128
 H        -1.9350915993        3.4260907944      -12.5397036022
 H        -1.0862874996        1.9077521301      -13.2396123737
 H        -3.3666018358        1.4446904158       -9.7411087574
 H        -3.2586570875        3.1829465740      -10.4498531331
 H        -1.8176325352        2.2920841658       -9.8885628454
 H        -7.2966655392       -1.2208335995      -13.1253850285
 H        -8.5743795499       -0.6391241490      -14.1346044056
 H        -8.9380828544       -1.9308178338      -12.8168625750
 H       -10.7700416161        0.1332242857      -12.3363533162
 H       -10.0658821218        1.0799561540      -13.6392747733
 H       -10.0893666269        1.7945547367      -12.0117531208
 H        -7.1379139265        2.7312991896       -6.4117273036
 H        -6.2305238511        1.6129635203       -5.3379224734
 H        -7.5095671319        2.6246730285       -4.7056726959
 H        -6.8864269077       -0.4736364717       -4.5161499149
 H        -6.5507366397       -0.5350882282       -6.3415496056
 H        -7.9129263970       -1.3225598518       -5.5360169302
 H       -12.5115838648       -0.5429418597        0.6735416805
 H       -12.9459987261        0.6726012141       -0.5631979551
 H       -11.2584422756        0.2359839228       -0.0879661852
 H       -10.1146832482       -1.6668808981       -0.9635025870
 H       -11.0220293400       -3.2638612007       -1.4974581200
 H       -11.0482497786       -2.5333823668        0.1904522737
 H       -18.3631237511       -2.5739606617       -5.2046806028
 H       -16.9834567219       -3.0190465953       -4.4631854812
 H       -17.1317014418       -1.3548292833       -5.0713633054
 H       -19.8193790373       -0.7267091391       -2.2215533230
 H       -20.2897425513       -1.7253979045       -3.7138486040
 H       -19.5741605643       -0.1992213184       -3.8201134869
 H       -18.9853275096       -7.6298574851       -0.0575478218
 H       -20.2093945997       -6.7137870282        0.7352667723
 H       -19.2682946120       -7.8972727801        1.6506205070
 H       -18.5797178372       -6.4939461420        3.2931408888
 H       -18.8443384443       -4.6795052717        2.8480201635
 H       -17.2449406669       -5.2792288305        3.0195208718
 Na      -15.6169806042       -4.4082099969       -0.7071428297
 Na        6.0627712821       -1.8060292884      -15.2981952075
