232

 C       -16.3446907652       -8.0399990061        1.7683043870
 C       -16.6583039512       -6.8872703329        0.9979801752
 O       -15.9184024615       -6.5626467476        0.0504789230
 C       -17.9645807326       -6.0705988347        1.3325090662
 C       -18.1779892774       -4.7406794310        0.5090756035
 O       -17.2437484713       -3.9492829838        0.5192585181
 C       -19.4077504527       -4.4489658666       -0.3679151503
 C       -19.3172234033       -3.0420286680       -1.0340869897
 C       -18.2761171248       -3.0055816957       -2.2116712986
 O       -17.5604623401       -3.9718791140       -2.3587415315
 C       -18.1875534561       -1.7441124314       -3.1912498660
 C       -17.0036850040       -0.8336873204       -2.6510709282
 O       -17.1819918637        0.2688307922       -2.1611798050
 C       -15.5765690448       -1.4518963385       -2.6626116214
 C       -14.8257637228       -1.2692545315       -1.3504824065
 C       -13.5659790388       -2.0725352643       -1.1934384641
 O       -13.5587850170       -3.2819972573       -0.9657151646
 C       -12.1811494594       -1.2642636313       -1.2573992134
 C       -12.0436841392       -0.8934122754       -2.7771760106
 O       -12.8566208869       -1.2729070262       -3.5796213329
 C       -11.0543327404        0.1433514436       -3.1863268180
 C       -10.3858553369        0.0108985814       -4.4637748441
 C        -9.1759849038        0.9778595835       -4.4448998897
 O        -8.9943159886        1.8024360464       -3.5831809990
 C        -8.1215029357        0.8611365846       -5.6593860709
 C        -8.8810387932        0.8841980597       -7.0219009701
 O       -10.1002797959        1.1372080656       -7.0415418365
 C        -8.1738841232        0.4337809855       -8.3524481863
 C        -9.0905401901        0.4388362760       -9.6387820556
 C        -8.4024420698       -0.2841154497      -10.7520933236
 O        -7.7790916798       -1.3342492049      -10.5025175352
 C        -8.5112767211        0.2364797253      -12.3224828651
 C        -7.4627426842        1.4347666103      -12.3095455319
 O        -7.8335504497        2.5849550860      -12.0751026688
 C        -6.0482061461        0.9578096111      -12.7587148787
 C        -4.9234851432        2.0117074577      -12.7511106968
 C        -3.4874343051        1.3010696456      -12.7353273864
 O        -3.2960773862        0.5519508076      -13.6245690116
 C        -2.3731694882        1.5716414751      -11.5543215361
 C        -1.8918367800        0.1378147439      -11.2819074075
 O        -1.9132839996       -0.3405532205      -10.1186962953
 C        -1.2227202607       -0.6645885577      -12.3877080540
 C        -1.4506657464       -2.2041013688      -12.3839005261
 C        -0.1579711448       -2.8190477779      -12.9457130118
 O         0.9000996910       -2.2598753850      -13.0201412672
 C        -0.3565876825       -4.3189110053      -13.5351486153
 C         1.2584994794       -4.5399969467      -13.9274853870
 O         1.6529830658       -4.2291996815      -15.0179670519
 C         2.2246850961       -5.3522291242      -12.9483640134
 C         3.6743672620       -5.1542118277      -13.3605404025
 C         4.7208294965       -5.5961593503      -12.2990541411
 O         4.2730511103       -5.9001503628      -11.1812602555
 C         6.2714047207       -5.7104947455      -12.6393570549
 C         6.7166312907       -4.1862377197      -13.0124722182
 O         5.9560778474       -3.4071411749      -13.5184013882
 C         8.2335994980       -3.8444713764      -12.9199189581
 C         8.4212930178       -2.3931241383      -12.5056356018
 C         9.0597165137       -1.4356829388      -13.6271681475
 O         8.8115752539       -1.6255596642      -14.7948061843
 C         9.9433784161       -0.2276123674      -13.1559580530
 C         8.6617069505        0.6751298572      -12.8042876781
 O         8.3088521213        0.6317559795      -11.6276867127
 C         7.9575488000        1.5443634600      -13.7708477149
 C         6.6190791580        2.2076493930      -13.2929550845
 C         5.4166733412        1.3298525676      -13.3138363988
 O         5.5831076300        0.2669269311      -13.9615008652
 C         3.9670317452        1.6137640240      -12.6481418102
 C         3.0331985141        1.6478947105      -14.0627448963
 O         2.7954456390        2.7598589325      -14.4613372445
 C         2.6984374954        0.3181400963      -14.7403084619
 C         2.4816620990        0.3216106181      -16.3399844504
 C         3.3329214051       -0.7145778229      -17.0257330804
 O         4.1725751353       -1.4097486406      -16.4594994669
 C         2.8424584320       -0.9170243494      -18.5764767179
 C         4.1650891805       -1.2533239706      -19.4676354388
 O         4.0899540972       -2.0903573165      -20.3121612773
 C         5.2702750147       -0.2240212685      -19.4623152969
 C         6.7233686800       -0.6182371941      -19.7985675729
 C         7.2168890101       -1.3209787834      -18.4928240613
 O         6.9080203287       -0.7808380490      -17.4535087529
 C         8.1071693406       -2.6353524212      -18.4696549293
 C         7.4888659304       -3.7540054303      -17.6568907439
 O         6.9334133171       -3.7418108635      -16.5608475367
 C         7.6729688054       -5.1686509576      -18.1976858649
 C         8.4803893284       -3.1076023098      -19.8996695662
 C         9.4199943275       -2.2674931695      -17.7796714725
 C         1.8357533657       -2.1139676931      -18.7186801407
 C         2.2210422511        0.3277132598      -19.1992860044
 C         3.5390356045        0.3873605112      -11.7668868033
 C         4.0113329145        2.8792505229      -11.8337585120
 C        10.8084454242       -0.4254190678      -11.9342839382
 C        10.8151703129        0.3400364635      -14.2665560031
 C         6.9162291340       -6.2525229662      -11.3167183829
 C         6.3977473299       -6.7630960739      -13.7321657461
 C        -0.6916826225       -5.2576499906      -12.2992908741
 C        -1.2914065625       -4.3489757345      -14.7474352230
 C        -1.4005286996        2.5006529218      -12.3496809887
 C        -3.0974082258        2.2670961703      -10.3147074557
 C        -8.2683479736       -0.9767407596      -13.3125779556
 C        -9.9374072262        0.7198983950      -12.6906437360
 C        -7.1565242688        2.1124847982       -5.7487571495
 C        -7.2344211687       -0.4351799878       -5.5160169243
 C       -12.2711933105       -0.0219374773       -0.4139825103
 C       -11.0894983179       -2.2418465260       -0.9173375858
 C       -17.8568015768       -2.1266796944       -4.7115197727
 C       -19.5548554947       -0.9938609600       -3.2504101716
 C       -19.0926059600       -7.1080131873        1.0018707378
 C       -18.1386462558       -5.5930155655        2.8161558419
 H       -15.3125072359       -8.2982008818        1.4271772398
 H       -16.9769291583       -8.9140257551        1.5060116220
 H       -16.5011566995       -7.8518580098        2.7879389294
 H       -20.3230840797       -4.6382147991        0.2133472969
 H       -19.4243532429       -5.1831024256       -1.1372742974
 H       -18.9850596308       -2.3579113470       -0.2667088763
 H       -20.3780971922       -2.6680206137       -1.3982803294
 H       -15.0166947150       -1.0453226289       -3.5045762677
 H       -15.6414615750       -2.5853888916       -2.9156989337
 H       -15.4029729636       -1.6463262726       -0.5374383110
 H       -14.4338023990       -0.3094664335       -1.1287274026
 H       -10.3462037005        0.2429794585       -2.3766939540
 H       -11.7220925448        1.0969726238       -3.2335439345
 H       -11.0560911582        0.1148220550       -5.2925545759
 H       -10.0438690090       -1.0186732442       -4.5894404794
 H        -7.8823007305       -0.5681854697       -8.1409912327
 H        -7.2692591632        0.9430469952       -8.5309884181
 H        -9.3015927718        1.4910577597      -10.0424397634
 H       -10.0575029810       -0.0196675292       -9.3706781880
 H        -6.1202216460        0.5630982351      -13.7702359460
 H        -5.6752267598        0.0441042881      -12.2332428195
 H        -5.2151583161        2.8465459872      -12.0438804143
 H        -4.8613230642        2.4589090525      -13.7136661072
 H        -0.1431833386       -0.5618871839      -12.2562555073
 H        -1.4551064248       -0.2517358572      -13.3413879977
 H        -2.4111341386       -2.5202787068      -12.8740624384
 H        -1.6433596017       -2.4858653262      -11.2824094698
 H         1.9215678531       -6.3597164919      -13.0618896078
 H         2.1356367562       -4.9459667456      -11.9730813103
 H         3.8193039205       -4.1352907928      -13.7218989988
 H         4.0073667775       -5.6600107037      -14.3032539169
 H         8.6103936313       -4.0580723251      -13.9653388299
 H         8.8404941764       -4.4755851422      -12.3026057761
 H         8.9960105873       -2.3558460165      -11.5528740433
 H         7.5431708967       -1.8916549575      -12.0853624698
 H         7.8962446823        1.1059112429      -14.7988464011
 H         8.6613995878        2.4029277902      -13.9223621598
 H         6.4663825420        3.0094006885      -13.9163556267
 H         6.7901906335        2.4414426164      -12.2276683725
 H         2.0181650723       -0.3279367401      -14.2058738303
 H         3.7225579165       -0.1779155578      -14.6267902286
 H         2.7059188199        1.3019624989      -16.8324016479
 H         1.4488768184        0.0670924742      -16.5486686623
 H         5.3367775340        0.2362619013      -18.5132348427
 H         4.8783913720        0.5534455273      -20.1383715434
 H         7.3944595980        0.2230978889      -19.9703421059
 H         6.8662659872       -1.2552886689      -20.6980813633
 H         7.2136537529       -5.4726979821      -19.1215912452
 H         7.1445613790       -5.8943604062      -17.5393482407
 H         8.7520523250       -5.5220508287      -18.2962426912
 H         9.0741105168       -4.0839079851      -19.9551798909
 H         9.0647481955       -2.3585388697      -20.4110445708
 H         7.6039950064       -3.0598991380      -20.5180451750
 H        10.1636161510       -3.0728963265      -17.5323665471
 H         9.1783162883       -1.7561586107      -16.8385914300
 H         9.8886838450       -1.5428188786      -18.4982170329
 H         2.0270025309       -2.6020807464      -19.7045580304
 H         0.8385215426       -1.7646019781      -18.5651277763
 H         2.1245686378       -2.9000762779      -18.0063649794
 H         1.3586880877        0.6595533985      -18.5687723791
 H         1.7022437649        0.0829623456      -20.1523718735
 H         2.9009887107        1.1308152198      -19.2879199999
 H         3.3096908350       -0.5658087762      -12.2867751847
 H         2.6504259361        0.6444960832      -11.2278141890
 H         4.2966212603        0.1106262192      -11.0518281137
 H         4.7928781177        2.7265750234      -11.0546732329
 H         3.0680114060        3.0541184260      -11.2998563415
 H         4.3396423433        3.8223611498      -12.3869637376
 H        11.2402657439        0.4488500168      -11.5466825549
 H        11.6985976610       -1.0746806555      -12.1069821716
 H        10.2376972247       -0.7654074221      -11.0801918058
 H        10.2998603111        0.9073521825      -15.0256276588
 H        11.4734711919       -0.4292039662      -14.7254429402
 H        11.5374615867        1.1671696884      -13.8589511367
 H         6.6125122930       -7.2629034573      -11.1864405554
 H         6.6018858814       -5.7146348160      -10.4591499477
 H         8.0019327695       -6.1333191472      -11.4819314013
 H         5.9377616798       -7.6213879005      -13.1710696262
 H         7.4807797383       -7.0323585342      -13.9543271208
 H         5.7693250726       -6.6634255119      -14.6505120172
 H        -0.1547188319       -4.9230462172      -11.4244706546
 H        -0.4237555287       -6.2956969832      -12.6294755195
 H        -1.8093819112       -5.2625805139      -12.2970136958
 H        -1.0550873000       -5.1028818837      -15.5257305481
 H        -1.1459560121       -3.3764725197      -15.2471723564
 H        -2.3555377863       -4.3981189502      -14.4195877204
 H        -0.4011339263        2.5879082905      -11.8919531474
 H        -1.8378798801        3.4652100686      -12.3719130154
 H        -1.2496122714        2.0492979477      -13.2992648530
 H        -3.9164766832        1.5418396900      -10.0406178687
 H        -3.4650870054        3.1915276215      -10.6426164462
 H        -2.3640669068        2.3276666922       -9.4729262805
 H        -7.2386983416       -1.3477010798      -13.4473364647
 H        -8.6411046285       -0.5535319940      -14.2680185106
 H        -8.9004909856       -1.8035829785      -12.8949320505
 H       -10.5687479576       -0.0771778492      -12.3702807108
 H        -9.9877028980        0.8278653191      -13.7414918539
 H       -10.1360712865        1.6985729500      -12.2079547033
 H        -7.1696176526        2.6162916263       -6.7564411232
 H        -6.1605092872        1.7540833835       -5.5615106246
 H        -7.4538702202        2.8745934166       -5.0583957563
 H        -6.7496664109       -0.5488247513       -4.5551872984
 H        -6.6208452137       -0.3985463265       -6.3323199810
 H        -7.8737507594       -1.3284855413       -5.6301012944
 H       -12.3034834764       -0.1497263726        0.7000741380
 H       -13.0435098898        0.7483950418       -0.7416439050
 H       -11.3126913764        0.4268670400       -0.5300000881
 H       -10.2404533465       -1.7078279010       -1.2227152695
 H       -11.3094680495       -3.1812785293       -1.3932785576
 H       -10.9310073278       -2.3605063718        0.1293442931
 H       -18.4621473235       -2.8378736336       -5.1880831989
 H       -16.9230650575       -2.5815371976       -4.8289447185
 H       -17.7938870095       -1.1920983778       -5.3088900166
 H       -19.9225068182       -0.6930454940       -2.2368415699
 H       -20.3346398826       -1.4906370839       -3.8591368652
 H       -19.4597845976       -0.0031920764       -3.6825350785
 H       -19.0453550241       -7.4791873960       -0.0843734538
 H       -20.0249420857       -6.6390904236        1.0472992544
 H       -19.2663764498       -7.9920792069        1.6945231432
 H       -18.7632386320       -6.3423490686        3.2493565140
 H       -18.7346343053       -4.6563022392        2.7477228467
 H       -17.2394088892       -5.3490342533        3.4377963667
 Na      -15.5381496291       -4.4518980346       -0.7553154065
 Na        6.1314472267       -1.9390833001      -15.2163550851
