232

 C       -16.1076934111       -8.1656675878        1.4015481335
 C       -16.4832587790       -6.8180657924        0.8939613315
 O       -15.9174126750       -6.3866858559       -0.1535928861
 C       -17.7259225090       -6.0442933159        1.4467274440
 C       -17.9785473701       -4.7717428768        0.6517948885
 O       -17.0917604132       -3.8898090443        0.6925003978
 C       -19.2562813197       -4.5142274363       -0.0854901932
 C       -19.3061754190       -3.0797726860       -0.8632753121
 C       -18.3339025223       -3.0817842616       -2.0066433363
 O       -17.4955291540       -3.9330507690       -2.1826535029
 C       -18.4423208894       -1.8235126718       -2.9848183091
 C       -17.2194104271       -0.8071750602       -2.6052823739
 O       -17.3804198167        0.3146717799       -2.2200170633
 C       -15.7712745107       -1.4111984259       -2.6061214888
 C       -15.1212323397       -1.1082389489       -1.2559325698
 C       -13.8018554040       -1.8213146622       -1.0096493764
 O       -13.8901527976       -3.0008859617       -0.6300600487
 C       -12.4692182542       -1.0958231844       -1.2620383744
 C       -12.0728203889       -0.8070689777       -2.7692623020
 O       -12.4229097596       -1.5380305135       -3.6230158976
 C       -11.0020428597        0.3156971366       -3.1643058118
 C       -10.2008480119        0.0135649488       -4.3871452858
 C        -9.0362807031        1.1315034396       -4.5879844055
 O        -8.9889204731        2.0396902653       -3.7955319627
 C        -7.9995340813        1.0551303633       -5.7786440560
 C        -8.8002783691        0.8086970387       -7.1973725549
 O        -9.7936523902        1.4797659027       -7.4757676166
 C        -8.1997416684       -0.0968778554       -8.2659111317
 C        -8.7204108572        0.2645143296       -9.6446305549
 C        -8.2180624056       -0.6202357214      -10.7095237999
 O        -7.7773605119       -1.7235015877      -10.4893856420
 C        -8.3467650683        0.0380639532      -12.2343088283
 C        -7.4850085230        1.3062949061      -12.2052354172
 O        -7.5432487427        2.2301397471      -11.4148228569
 C        -6.3072590300        1.3541123154      -13.3230157492
 C        -5.1843050154        2.4423874484      -13.0560356672
 C        -3.7409228451        1.7766768962      -13.0097764820
 O        -3.2332737836        1.2625762062      -13.9100208877
 C        -2.8266009333        1.7127565122      -11.6213214964
 C        -2.2695515393        0.3129929613      -11.2209198323
 O        -2.5461178987       -0.1014345146      -10.1221631153
 C        -1.3567850272       -0.4755295451      -12.1735710703
 C        -1.3067005943       -2.0926590364      -12.0879203965
 C        -0.1535129043       -2.7529712494      -12.7700490399
 O         0.9772851086       -2.2843745279      -12.7825807728
 C        -0.2882253182       -4.2167845407      -13.4182916094
 C         1.1278491668       -4.7089023868      -14.1391303505
 O         1.2703434421       -4.5029259477      -15.2954809711
 C         2.1872140014       -5.3844032243      -13.1462131307
 C         3.6386472286       -5.1145237343      -13.5656036461
 C         4.5137379245       -5.3412600170      -12.3595804072
 O         4.0013486474       -5.3157866248      -11.2495426656
 C         6.0887760399       -5.4690854711      -12.5086732283
 C         6.5929752846       -4.1410540848      -12.9991487179
 O         5.8810073981       -3.5393102090      -13.8291643776
 C         8.0585030810       -3.6781478552      -12.6331420984
 C         8.3163166684       -2.2354625973      -12.2384017944
 C         8.8684434214       -1.3637373221      -13.3859812329
 O         8.6288524261       -1.7783748609      -14.4840282379
 C         9.8081949196       -0.1192334978      -13.1612441905
 C         8.7813498446        1.0804967870      -12.6325836733
 O         8.7427145888        1.2944793727      -11.4889145322
 C         8.0328495385        1.9219789806      -13.6797101051
 C         6.5367415394        2.1756168125      -13.4253650898
 C         5.7222999783        0.8942224023      -13.2635517859
 O         6.2196960462       -0.2274515730      -13.5334578507
 C         4.2060271183        0.9598393913      -12.7847189584
 C         3.3097408424        1.0075182310      -14.1185317189
 O         2.9803116640        2.0860403138      -14.5072711047
 C         3.0621997888       -0.2468028242      -14.8999340423
 C         2.8933666052        0.1224843688      -16.3524233991
 C         3.5243122970       -0.8375389187      -17.2482522995
 O         4.5260180791       -1.5286600792      -16.9067126228
 C         3.0173783428       -0.9846607024      -18.7589428342
 C         4.3546503356       -1.2334884099      -19.5392236397
 O         4.4906233041       -2.2825385882      -20.1560081095
 C         5.4606107091       -0.0845120564      -19.5585701682
 C         6.8478468315       -0.6702724212      -19.8389110210
 C         7.2081194452       -1.4131336538      -18.4862033621
 O         6.8884971979       -0.8920198815      -17.4553119232
 C         7.9056773850       -2.8284106403      -18.5207207360
 C         7.2436326056       -3.9485382035      -17.8049704021
 O         6.5077146486       -3.8204028224      -16.8180068596
 C         7.6054507239       -5.3536212589      -18.2645871846
 C         8.3628218178       -3.1293279735      -19.9011320736
 C         9.2524478833       -2.5174536156      -17.7146144170
 C         2.0597854631       -2.2390157960      -18.9043737991
 C         2.3377450908        0.3183486954      -19.1807010867
 C         3.8966960310       -0.1503017750      -11.8883842810
 C         4.0734292394        2.2644385800      -12.0060638143
 C        10.8353319742       -0.4603264007      -11.9676142456
 C        10.4985418023        0.3356818867      -14.4821988623
 C         6.5689556909       -6.0308271999      -11.0926075119
 C         6.5193272122       -6.6332359620      -13.6230279069
 C        -0.7577386984       -5.1035888325      -12.2236816698
 C        -1.3671925362       -4.1923336009      -14.5441536323
 C        -1.6726715223        2.7168161907      -12.0282931976
 C        -3.6993141715        2.3877160582      -10.4750037123
 C        -8.0918387110       -1.0215090843      -13.3028590309
 C        -9.8150602790        0.4431246301      -12.5291953106
 C        -7.1972120894        2.3497970793       -6.0012416891
 C        -7.1101669129       -0.2113225863       -5.6190929901
 C       -12.4931209515        0.2579648086       -0.5259161990
 C       -11.2565884659       -2.0794748968       -0.7936461801
 C       -18.3765454217       -2.3222515892       -4.4409145174
 C       -19.7744576389       -1.1216155158       -2.8833741741
 C       -19.0376916728       -6.8907584150        1.3480639373
 C       -17.5898746066       -5.6309989119        2.9235394145
 H       -15.0412935877       -8.3705791822        1.5860946340
 H       -16.4953342570       -8.8871602865        0.6673974073
 H       -16.7561119160       -8.4100569975        2.1975482594
 H       -20.1785355704       -4.5570790986        0.5015373747
 H       -19.3312950655       -5.3070930821       -0.8016295682
 H       -19.0432383066       -2.3039057255       -0.1883640753
 H       -20.3758407333       -3.1368966656       -1.2396676384
 H       -15.1519165542       -1.0196216465       -3.4129723021
 H       -15.8655530309       -2.5466392290       -2.7814275204
 H       -15.8054057835       -1.3664774893       -0.4597270559
 H       -14.9873312972       -0.0249330965       -1.1423999404
 H       -10.3005847423        0.3595566745       -2.3468789762
 H       -11.4837133254        1.3403924381       -3.3716181524
 H       -10.6548167524       -0.1687173905       -5.3264826999
 H        -9.7000513999       -0.9043758426       -4.1274770086
 H        -8.4060328776       -1.1417102567       -8.0341982433
 H        -7.1314936863       -0.0558593503       -8.3254080973
 H        -8.2745417032        1.2480180636       -9.8997846091
 H        -9.7883195425        0.2474762128       -9.6618248484
 H        -6.6114893713        1.4415855015      -14.3961066529
 H        -5.7706774830        0.3325152289      -13.3472044762
 H        -5.4756721333        2.8007487494      -12.0628839957
 H        -5.2973985300        3.1797409307      -13.7905917368
 H        -0.3214804995       -0.1593287122      -12.2128462735
 H        -1.6939626378       -0.2583467265      -13.1791872054
 H        -2.2259937635       -2.4903135856      -12.6039839190
 H        -1.4090651534       -2.4493672126      -11.0494653396
 H         1.9756175870       -6.4192704330      -12.9614117391
 H         2.0215785753       -4.7310954413      -12.2975120500
 H         3.8024721673       -4.0583227577      -13.8803065293
 H         3.8712713436       -5.7901138316      -14.4621516855
 H         8.6115835231       -3.8619673941      -13.5416765807
 H         8.4500201274       -4.3747105445      -11.9446897763
 H         8.9910643702       -2.1056664329      -11.3277093500
 H         7.4404080865       -1.7205332271      -11.8141504336
 H         8.1506571973        1.4494912403      -14.6384544954
 H         8.5713587391        2.8358890467      -13.7962012879
 H         6.0426051714        2.6521060769      -14.2172360018
 H         6.4239135275        2.7436454311      -12.5357745168
 H         2.1459545604       -0.5900820449      -14.4132615681
 H         3.7816099677       -1.0924452906      -14.5675638423
 H         3.0727716638        1.2390782998      -16.5816608399
 H         1.8030736022       -0.0078085359      -16.4656553014
 H         5.4789650271        0.3588947039      -18.6023520569
 H         5.2734479081        0.7381766208      -20.2582268634
 H         7.5843793721       -0.0171665817      -20.2794605520
 H         6.7346727447       -1.4186099989      -20.6358803537
 H         7.1089121811       -5.6330051843      -19.1417511701
 H         7.1774688552       -6.1076047803      -17.5907057810
 H         8.6032607268       -5.6609469531      -18.4558080646
 H         8.8902193153       -4.1915453054      -19.8881294767
 H         9.1273325131       -2.3916642431      -20.2441450022
 H         7.6568798142       -3.2482183219      -20.6724816027
 H        10.0325450487       -3.2877509186      -17.8733589602
 H         9.0537220860       -2.4051449918      -16.6675565852
 H         9.7757616708       -1.6736710098      -18.1679515249
 H         1.5695185512       -2.1879814338      -19.9211228853
 H         1.2666661390       -2.2464536840      -18.2326931393
 H         2.7365760287       -3.1278604320      -18.9746831562
 H         1.2920723564        0.3169250382      -18.8432891832
 H         2.4294982994        0.4896472849      -20.2519740966
 H         2.8646200676        1.1266397283      -18.8100091775
 H         4.3021824910       -1.0779283321      -12.3139814243
 H         2.8711242967       -0.3998720832      -11.8872360930
 H         4.2446464386       -0.0174917874      -10.9028378840
 H         4.8600914083        2.2891622310      -11.2333625543
 H         3.1436223412        2.2528470913      -11.5604190309
 H         4.2732345157        3.1451929775      -12.5998174950
 H        11.7013977162        0.1630231938      -12.0489883295
 H        11.2166722361       -1.5164044073      -11.8999496974
 H        10.3352947527       -0.1976394433      -10.9480329483
 H         9.8257335572        0.1321797984      -15.3360265010
 H        11.4429329211       -0.2349427840      -14.7805516563
 H        10.8804275244        1.3599329524      -14.6020443383
 H         5.8097322448       -6.6046706240      -10.6267352680
 H         6.8014178325       -5.1848572180      -10.4717733871
 H         7.5047396853       -6.6411474254      -11.3004383688
 H         6.0450638736       -7.5044084431      -13.3132014464
 H         7.5752192748       -6.7773124309      -13.6340626928
 H         6.2129283119       -6.4573422430      -14.6679724304
 H         0.1193736622       -5.2280066762      -11.6382703331
 H        -1.0694974332       -6.0571010882      -12.6118850166
 H        -1.5895560077       -4.6210970252      -11.7163507258
 H        -1.7566661280       -5.1090444478      -14.7672198321
 H        -0.8787857373       -3.8957665331      -15.4284478861
 H        -2.0660068392       -3.4359898180      -14.3942826321
 H        -1.1496475886        3.1035732414      -11.1158623415
 H        -2.2405860733        3.5826282791      -12.4596004327
 H        -1.0715352503        2.3488921910      -12.8456521577
 H        -4.5990644065        1.8209037859      -10.2207856359
 H        -3.9744043101        3.3041626067      -10.9277938453
 H        -3.0639378100        2.3858573440       -9.5929437660
 H        -7.0984306446       -1.4845998595      -13.2155793169
 H        -8.2063899289       -0.5261204050      -14.3177453906
 H        -8.8109348666       -1.7964782122      -13.2192944098
 H       -10.4117020103       -0.4075607841      -12.2693947225
 H        -9.9164459092        0.7931363761      -13.5288362591
 H       -10.0465807174        1.2720166785      -11.8162158028
 H        -6.3849965622        2.2907098646       -6.7404598539
 H        -6.7191561157        2.6309287285       -5.0674576408
 H        -7.9549862457        3.0651292681       -6.2318769624
 H        -6.5794800693       -0.2572106456       -4.6497732440
 H        -6.3853533541       -0.2081354386       -6.3564834616
 H        -7.8089136708       -1.0829496046       -5.7710564255
 H       -12.9785783824        0.0661098688        0.4225449107
 H       -13.1961715579        0.8648981242       -1.0605097005
 H       -11.6690489341        0.9836620689       -0.3499701402
 H       -10.2399790459       -1.5801714270       -0.6655010808
 H       -11.3492513796       -2.8438939892       -1.5457747844
 H       -11.5423671766       -2.5198762066        0.2044837017
 H       -19.2815799845       -2.9733879919       -4.6172292636
 H       -17.5219144620       -2.9261952017       -4.7258828684
 H       -18.3704672912       -1.5459170427       -5.1401503020
 H       -20.0205004531       -0.5770246083       -2.0345912183
 H       -20.5595234218       -1.8918374226       -3.0890894316
 H       -19.8634853195       -0.4223378934       -3.7568842387
 H       -19.1870903720       -7.3212311715        0.3563308913
 H       -19.8549490695       -6.4231653661        1.7483678033
 H       -19.0566515932       -7.8065673404        2.0019091041
 H       -17.2967119254       -6.5362861912        3.4132666222
 H       -18.5578101913       -5.3872073947        3.4009606719
 H       -16.7253872703       -4.9183040401        3.0163128428
 Na      -15.6113002335       -4.3828867386       -1.2048425127
 Na        6.4273157958       -1.9204978824      -15.3123342501
