232

 C       -16.1842748490       -8.2342227945        1.2725784617
 C       -16.5122151471       -6.8405849116        0.7618522590
 O       -15.8694929118       -6.3646631598       -0.1270694586
 C       -17.6683579232       -6.0462024905        1.5091291784
 C       -17.8860436980       -4.6766989309        0.6699658668
 O       -17.0205113409       -3.8143602198        0.6592141980
 C       -19.2616973296       -4.5959518981       -0.1043401722
 C       -19.2659156285       -3.0988592092       -0.6851063385
 C       -18.3954872399       -3.0813367601       -1.9212139988
 O       -17.6315966820       -4.0011628635       -2.1794901185
 C       -18.5407412513       -1.8405754318       -2.9406455868
 C       -17.3265604626       -0.8551828612       -2.5665603236
 O       -17.5556876777        0.2917587766       -2.3120993538
 C       -15.8655192387       -1.3007417223       -2.6939794219
 C       -15.1426025969       -1.0035505379       -1.4094846398
 C       -13.8045572523       -1.7989394838       -1.2201334077
 O       -13.8881680716       -2.9281319070       -0.8692057077
 C       -12.4729812349       -1.0904791582       -1.2669936311
 C       -11.9216678578       -0.8721202693       -2.7503629213
 O       -12.4219628128       -1.5584632471       -3.6384056800
 C       -10.9899039603        0.3238531776       -3.0526163423
 C       -10.1800347125        0.0299973544       -4.3377893448
 C        -9.0900048267        1.1055246698       -4.6274387340
 O        -9.0573986606        2.0611061455       -3.8713389882
 C        -8.0579687715        1.0052093249       -5.8368339286
 C        -8.7652877633        0.8607965916       -7.2097095183
 O        -9.7479708054        1.5136951339       -7.3672023100
 C        -8.2500073758       -0.1833895341       -8.1318109408
 C        -8.7180046775        0.2639917774       -9.5644470283
 C        -8.2230411496       -0.6794702426      -10.7824767667
 O        -7.7229138026       -1.7430679834      -10.5996203990
 C        -8.3999685864       -0.0394362795      -12.2398460633
 C        -7.3071454742        1.1608191400      -12.3181292256
 O        -7.4102779245        1.9960743631      -11.4687578950
 C        -6.3028685053        1.3545140769      -13.4385639242
 C        -5.1328446579        2.2873698581      -13.0989627433
 C        -3.7818373559        1.7074136517      -12.9466110054
 O        -3.1241652886        1.4561029994      -13.9821000057
 C        -2.9252800102        1.8645971865      -11.6367816333
 C        -2.4342737215        0.2993480998      -11.2904959806
 O        -2.7480184865       -0.2694444305      -10.2968652071
 C        -1.4349311892       -0.4588496444      -12.3161164987
 C        -1.3058487592       -1.9150041784      -11.9738554581
 C        -0.0900307932       -2.7052313166      -12.7386494124
 O         1.0259587240       -2.1546791057      -12.7300525409
 C        -0.2924160087       -4.1204761161      -13.4591594645
 C         1.0029964378       -4.6266178119      -14.0712986543
 O         1.4048224941       -4.6317000466      -15.2238812852
 C         1.9706016937       -5.2551040487      -13.1338531229
 C         3.4090628549       -5.1089929810      -13.6438105824
 C         4.4211025709       -5.2746954227      -12.4068369390
 O         3.9840227824       -5.1814078306      -11.3140445951
 C         6.0077852563       -5.4683464055      -12.5441089072
 C         6.5910692559       -4.1507949113      -13.0549614946
 O         5.8947212271       -3.4808869657      -13.8248606811
 C         7.9711267808       -3.5812965439      -12.5375195474
 C         8.2346853314       -2.1897977432      -12.0735982578
 C         8.8447408855       -1.3646531121      -13.2393568241
 O         8.6732733055       -1.7684594905      -14.3972610310
 C         9.7785164634       -0.0803498557      -13.1700966432
 C         8.9308882708        1.0675992325      -12.6630481836
 O         8.8153717500        1.3323008456      -11.4680497703
 C         8.0941514520        1.9008689344      -13.7573199855
 C         6.5822793773        2.1257725032      -13.4481330362
 C         5.8020503253        0.7905377955      -13.1884252031
 O         6.4413426819       -0.2250973693      -13.3987556647
 C         4.2957883165        0.8728977385      -12.6930805834
 C         3.4135483709        1.0040423667      -14.0854904619
 O         2.9797257664        2.0470385194      -14.5488991143
 C         3.1296138539       -0.3693944211      -14.8339939533
 C         2.7963176604       -0.1071382326      -16.3553568813
 C         3.5792169660       -0.9982943707      -17.2969329587
 O         4.6373636544       -1.5705752891      -17.0785010992
 C         3.0809955534       -1.0562339855      -18.8102765254
 C         4.3968149258       -1.2458046873      -19.6495164184
 O         4.8539628918       -2.2698806136      -20.1347576426
 C         5.3547485757       -0.0920457133      -19.5115201930
 C         6.7598714233       -0.6931045462      -19.9015182786
 C         7.2134859732       -1.4620437022      -18.5862646314
 O         7.1044938786       -0.7869891261      -17.5820495963
 C         8.0015313990       -2.8228667247      -18.6382337871
 C         7.1696087036       -4.0237823756      -17.8263019746
 O         6.5289350366       -3.8620574704      -16.8113994553
 C         7.4697501952       -5.3990294524      -18.2885742009
 C         8.3812218717       -3.2511980886      -20.0160848261
 C         9.1831421744       -2.5576181912      -17.6281135745
 C         2.0105505210       -2.2660992634      -18.9087655233
 C         2.3684337451        0.3414735428      -19.0822401950
 C         3.8496336812       -0.4499535076      -11.9400157070
 C         3.8952993855        2.1963108411      -11.8548922811
 C        10.7866581990       -0.3016883508      -12.0366168385
 C        10.5822554009        0.1240371400      -14.4372704193
 C         6.5564831040       -5.7986971436      -11.1442798138
 C         6.4567513154       -6.5341916377      -13.5393037685
 C        -0.7881231206       -5.0919496967      -12.1149953680
 C        -1.4494393273       -4.0822982862      -14.4797790790
 C        -1.8360464388        2.8894921652      -12.0056090216
 C        -3.6343353884        2.3775594957      -10.3219461615
 C        -7.9964643555       -1.0689564148      -13.3011283016
 C        -9.8956010350        0.5255159062      -12.4688004283
 C        -7.2737030445        2.3261966959       -5.9893420914
 C        -7.0843785274       -0.1870443322       -5.4986670173
 C       -12.5406667610        0.2949510468       -0.4987978493
 C       -11.2897837553       -1.9462210936       -0.6630119982
 C       -18.2258109128       -2.2793734218       -4.3597245382
 C       -19.8047518825       -1.0197032699       -2.8326481703
 C       -18.8572739907       -7.0267274074        1.4744040911
 C       -17.4424278321       -5.5751988808        3.0059853488
 H       -15.1286795568       -8.1779889431        1.4427797604
 H       -16.3325079455       -8.9524653688        0.4806619647
 H       -16.7530859005       -8.7187962784        2.1168299847
 H       -20.1270057228       -4.7238664851        0.5210491045
 H       -19.3424756878       -5.3187091578       -0.8854340996
 H       -18.7135597408       -2.5145954443        0.0926785951
 H       -20.3003915035       -2.9017663853       -0.8883006410
 H       -15.4308040638       -0.7326453950       -3.5691607246
 H       -15.8229775642       -2.3690255132       -2.9315953486
 H       -15.8047870373       -1.2188967416       -0.5806200063
 H       -15.0297128515        0.0933110917       -1.2932813587
 H       -10.3683689781        0.5449584288       -2.1310346832
 H       -11.6371083091        1.1596953979       -3.3332658751
 H       -10.7637553347        0.0916324184       -5.2524425027
 H        -9.8095755915       -0.9984373811       -4.3026004308
 H        -8.7442957055       -1.0953172570       -7.8702024320
 H        -7.2246839989       -0.3872661539       -8.0987732461
 H        -8.3107939646        1.2810735613       -9.7403907691
 H        -9.8303579892        0.2264070190       -9.5026195454
 H        -6.8800191623        1.8537326915      -14.2376079417
 H        -5.9210753664        0.4687255468      -13.9580558762
 H        -5.4348018236        2.8643586125      -12.2543837056
 H        -5.0605735475        2.9339911641      -14.0326318992
 H        -0.4174880893       -0.1606614464      -12.1950049875
 H        -1.6013031389       -0.2151295103      -13.3611170388
 H        -2.2655663615       -2.5747358829      -12.1441146503
 H        -1.1772767983       -1.8527353291      -10.8756714488
 H         1.6506347650       -6.2831170471      -13.0443739991
 H         1.8733395944       -4.7381644303      -12.2030913664
 H         3.5546045433       -4.1420244497      -14.2117020712
 H         3.5261466407       -5.9511496663      -14.3221927264
 H         8.6489272591       -3.7223647967      -13.3759957598
 H         8.3322059195       -4.3668759972      -11.8024461209
 H         8.8411797266       -2.0252338068      -11.1493157154
 H         7.3385999025       -1.6168847931      -11.7900656749
 H         8.2002452843        1.5314234383      -14.8043382586
 H         8.5601136683        2.9183030066      -13.8474948508
 H         6.0371170725        2.5820245928      -14.3794552011
 H         6.4205844930        2.8427711953      -12.6813144142
 H         2.4557817959       -0.8894506892      -14.1553408607
 H         4.0243481637       -1.0246842135      -14.7216885887
 H         3.3592786003        0.8485994235      -16.5727288038
 H         1.7428827217        0.0948267006      -16.5187136547
 H         5.4550677184        0.4029947441      -18.5565823955
 H         5.0541274164        0.6793138404      -20.2055203275
 H         7.5418811441        0.1086825774      -19.9955579168
 H         6.8346298562       -1.1356067982      -20.8708718515
 H         7.2277724342       -5.6735919280      -19.3712693347
 H         7.0942506261       -6.2804530526      -17.7410456433
 H         8.5469102099       -5.5062459205      -18.3144176499
 H         9.0653022493       -4.0340587828      -19.9018364407
 H         8.8378280591       -2.5077065330      -20.7298637425
 H         7.5748089830       -3.8160762084      -20.5215032262
 H         9.7532343939       -3.4945949288      -17.3913844898
 H         8.7576984624       -2.1238141765      -16.6914684976
 H        10.0133946688       -1.9850879793      -18.0618077862
 H         1.5193652166       -2.0916910791      -19.8755992449
 H         1.1655183253       -2.1922165572      -18.2254921436
 H         2.5458412894       -3.2288422522      -18.9976170589
 H         1.4120643418        0.3938772203      -18.6259452390
 H         2.3671654164        0.5623583449      -20.1186247702
 H         3.0382830415        1.1547575457      -18.7360799674
 H         4.1620330951       -1.3001300702      -12.4856211932
 H         2.7806754369       -0.6449783776      -11.8933241344
 H         4.2142992811       -0.4748749268      -10.9395442010
 H         4.6281071158        2.5025416066      -11.0511168351
 H         2.9080075283        1.9512832502      -11.4583161865
 H         3.8570126819        3.0483691730      -12.5315965103
 H        11.5772489909        0.5278701530      -12.0318006783
 H        11.2990579100       -1.1799501793      -12.2160211265
 H        10.3454001847       -0.3985348203      -11.0328552396
 H         9.9653411427        0.4782229042      -15.3416792736
 H        11.1835474534       -0.7112958280      -14.8897042381
 H        11.3208303441        0.8592294161      -14.2971167650
 H         6.0108617848       -6.5823534398      -10.6447616729
 H         6.5643144293       -4.8642590389      -10.5825383331
 H         7.5563164070       -6.1280519717      -11.3243835611
 H         6.2036527142       -7.5833144168      -13.2743522360
 H         7.5345108636       -6.4366358472      -13.7810635143
 H         5.9375519836       -6.2631009845      -14.4995505938
 H         0.0643909834       -5.0795109788      -11.3638699745
 H        -0.9068560165       -6.1030497332      -12.4918410561
 H        -1.7331678489       -4.6705081783      -11.7305477892
 H        -1.6828280222       -5.0661556596      -14.8159666944
 H        -1.0961036809       -3.5950145175      -15.3736096018
 H        -2.2891501126       -3.4839652552      -14.2080551773
 H        -1.2864784290        2.9849917903      -11.1072462131
 H        -2.1865039144        3.8957792566      -12.3717342746
 H        -1.2650840567        2.4757514491      -12.8236506871
 H        -4.4435344175        1.7613826124      -10.0732920696
 H        -3.9923154383        3.4361311019      -10.4969029449
 H        -2.8640021087        2.1686930136       -9.5839223472
 H        -6.8584444858       -1.1744884016      -13.3431928407
 H        -8.3514868314       -0.6467686296      -14.2903178383
 H        -8.4194227040       -2.0485656464      -13.1985771757
 H       -10.6690718594       -0.1740014413      -12.1541225805
 H        -9.9393926943        0.7698341180      -13.5270462212
 H        -9.9828882377        1.4234553029      -11.9086244417
 H        -6.2829402223        2.1707463485       -6.2600054674
 H        -7.2311025929        2.8717045587       -4.9973078975
 H        -7.8524261967        2.9465257647       -6.6767852516
 H        -6.6506023987       -0.0012067665       -4.5498492338
 H        -6.1953227876       -0.0854773783       -6.1534285678
 H        -7.5466377344       -1.1447949376       -5.5852332988
 H       -12.9516013215        0.2822246403        0.5213096383
 H       -13.1382014933        0.9699673530       -1.0778117786
 H       -11.5705887015        0.9452681483       -0.4924635555
 H       -10.3674160580       -1.3490779673       -0.4801671574
 H       -11.1554416451       -2.7520422085       -1.3494161812
 H       -11.6526005087       -2.3175898013        0.2832100826
 H       -19.1274240028       -2.6678753104       -4.8678997338
 H       -17.4741491175       -3.0474048287       -4.3874576693
 H       -17.8472146983       -1.5270507647       -4.9696582449
 H       -19.9910316887       -0.6060969327       -1.8489591064
 H       -20.7473018498       -1.5318968321       -3.1542431414
 H       -19.6644628616       -0.1604790632       -3.5610661362
 H       -18.8680777416       -7.6638063339        0.6276982774
 H       -19.9285846607       -6.7091861808        1.8181391861
 H       -18.6788357893       -7.7791962511        2.2536382651
 H       -17.0656886819       -6.3423882567        3.7203376559
 H       -18.3759357230       -5.1872184467        3.4412484245
 H       -16.6466148236       -4.8636491724        2.8065217341
 Na      -15.5886133126       -4.3379638464       -1.0674439092
 Na        6.3155730606       -1.9914369250      -15.4644501155
