232

 C       -16.2168778973       -8.3112218907        1.2008692472
 C       -16.3701291862       -6.8118967970        0.8449958907
 O       -15.7971547766       -6.3646599037       -0.1209828635
 C       -17.5851942793       -6.0517993172        1.5210428524
 C       -17.9356769656       -4.7435157791        0.7277967169
 O       -17.0809996321       -3.8944244558        0.7266554422
 C       -19.1539043041       -4.4878101378        0.0093926799
 C       -19.3177691395       -3.0863593944       -0.6321932163
 C       -18.5532446488       -3.0253966477       -1.9542098788
 O       -17.7567260472       -3.9359610429       -2.2667584572
 C       -18.5368968585       -1.8219442098       -2.9213819742
 C       -17.3574106715       -0.7996937752       -2.5866697044
 O       -17.7576212316        0.3209327567       -2.3253491287
 C       -15.8983167543       -1.2835338460       -2.7962521413
 C       -15.1078796058       -0.9102649987       -1.5082835998
 C       -13.7556867999       -1.7029562770       -1.2949111471
 O       -13.7685587588       -2.9271779493       -1.1963138052
 C       -12.4150367073       -0.9806262111       -1.2989197231
 C       -11.9830532314       -0.7711415575       -2.8382384160
 O       -12.3862975799       -1.5977933187       -3.6449497478
 C       -10.9202446764        0.2425634479       -3.0670340102
 C       -10.1635549447        0.0252112811       -4.4372565978
 C        -9.1778986684        1.1787202922       -4.6052730893
 O        -9.0801959518        2.1524920555       -3.9052520372
 C        -8.0864268974        0.9761828915       -5.7346820759
 C        -8.9143677392        0.7090856563       -7.0759754641
 O        -9.7530687918        1.5459700848       -7.3386907227
 C        -8.3840574282       -0.3282947432       -8.2052186975
 C        -8.7779659943        0.1987566071       -9.6612598843
 C        -8.2296057242       -0.6635233047      -10.8354082305
 O        -7.6841090276       -1.7479550921      -10.7179999480
 C        -8.2981026533       -0.0267414922      -12.2786189864
 C        -7.2652545070        1.1052274642      -12.3913900647
 O        -7.2352625084        1.9008715738      -11.4243946960
 C        -6.4025163992        1.2761431152      -13.6116422542
 C        -5.2483408161        2.3107728630      -13.1245290582
 C        -3.7642674744        1.8283171400      -13.0270237446
 O        -3.0754241895        1.4506940831      -14.0178348120
 C        -2.8527530374        1.7931252606      -11.5808256074
 C        -2.4203527842        0.3213604177      -11.4307406858
 O        -2.9991413766       -0.3397566326      -10.5286151193
 C        -1.4693412889       -0.3348196438      -12.3477081657
 C        -1.2085020590       -1.7862312755      -11.9770039453
 C        -0.1055638769       -2.5517837882      -12.7611582046
 O         0.9824583670       -2.0635647721      -12.7264174748
 C        -0.3765631664       -3.9165284091      -13.3834283069
 C         0.9715827895       -4.5960052681      -13.9454759111
 O         1.0865278208       -4.5389672761      -15.1577674031
 C         2.0407268923       -5.2181838438      -12.9408452778
 C         3.4303482830       -5.2820015077      -13.5313783976
 C         4.4030951749       -5.2564342266      -12.3834273216
 O         3.9249782895       -5.0448826692      -11.2730716633
 C         5.9587346719       -5.3475435809      -12.5861413547
 C         6.5203056908       -3.9348296890      -12.9715946294
 O         5.9685895660       -3.3368745076      -13.8182958467
 C         7.9647891619       -3.5992384098      -12.4960253550
 C         8.1296853598       -2.1042817533      -12.1284989685
 C         8.8436709070       -1.3739111371      -13.3002736997
 O         8.6207053192       -1.7784843376      -14.4495217431
 C         9.8182745246       -0.1522324318      -13.0813096847
 C         8.8479559657        1.1045769943      -12.6996399643
 O         8.7626013788        1.4787209104      -11.5235577837
 C         8.0772811813        1.8884058753      -13.8170455125
 C         6.6641467178        2.1307213146      -13.3804000310
 C         5.8654219368        0.7900237502      -13.0698110768
 O         6.3368238853       -0.2753493720      -13.2673771077
 C         4.3562602984        0.8022076488      -12.7515255569
 C         3.5155379176        0.8594126081      -14.0327854643
 O         3.1142684544        1.9372219266      -14.4638715034
 C         3.3043867106       -0.4667338003      -14.8201939240
 C         2.8236459496       -0.3210419668      -16.3009361251
 C         3.6106573425       -1.1197479563      -17.3155534451
 O         4.6142768495       -1.6970384680      -17.1037565205
 C         3.1399936391       -1.0759874102      -18.8250083844
 C         4.4544944227       -1.2772136783      -19.6648927730
 O         4.7561657063       -2.3671614975      -20.0577158076
 C         5.3457982446       -0.0109867330      -19.7325307312
 C         6.7925394603       -0.5594845637      -19.8648846020
 C         7.3097701032       -1.3303138504      -18.6307523864
 O         7.3079012056       -0.8280395417      -17.5080895896
 C         8.0045308891       -2.9028503963      -18.6292650254
 C         7.2330789250       -4.0145790387      -17.8831668883
 O         6.5797912356       -3.8409657024      -16.8888539539
 C         7.3366794710       -5.4533448219      -18.3838683548
 C         8.4139601877       -3.3359938467      -20.0464941845
 C         9.1965647426       -2.6921579774      -17.6419027281
 C         2.0837071746       -2.1894363404      -19.0168160489
 C         2.4212113074        0.2218485143      -19.1538419685
 C         3.9535481270       -0.5345597835      -12.0748883103
 C         3.8440436023        1.9102906919      -11.8189087304
 C        10.9168376658       -0.2802501663      -11.8996541897
 C        10.5318172385       -0.0639078539      -14.3757993668
 C         6.5109364839       -5.6738331736      -11.1110039427
 C         6.3163549920       -6.4636341850      -13.5553567105
 C        -0.8079000971       -4.9453563047      -12.3001079347
 C        -1.5288916431       -3.9496654924      -14.3455710618
 C        -1.8393930132        2.8595995048      -11.8754496927
 C        -3.6460143342        2.2437943932      -10.2935998247
 C        -8.0076783419       -1.2486749614      -13.2875696364
 C        -9.6938713997        0.5597948204      -12.3728802365
 C        -7.2980223338        2.3620354118       -5.8432432382
 C        -7.0401406907       -0.1601725503       -5.2988556096
 C       -12.5085259727        0.3378973885       -0.4595234328
 C       -11.3824040755       -1.8255421111       -0.4427194197
 C       -18.1391502021       -2.3400862259       -4.3396362458
 C       -19.8567899091       -1.0274920845       -2.7573394952
 C       -18.7828987685       -7.0688511030        1.6274358821
 C       -17.1722767113       -5.5945524346        2.9445364662
 H       -15.1461140811       -8.4002606930        1.4092863027
 H       -16.3942883770       -8.8984936099        0.2941275862
 H       -16.7953435317       -8.8306430732        1.9762527646
 H       -19.9920594095       -4.6512702575        0.6668951058
 H       -19.3369493364       -5.1900933782       -0.8300311835
 H       -18.7359132641       -2.3841934089        0.0234255963
 H       -20.3701943889       -3.0643279086       -0.7373842104
 H       -15.5402670290       -0.7523883360       -3.7010578439
 H       -15.9153006730       -2.3225427566       -2.9989156018
 H       -15.8257021833       -0.9276209584       -0.6343965209
 H       -14.9309182732        0.1783849031       -1.5191679312
 H       -10.2809382443        0.1198456680       -2.1558596647
 H       -11.3025192427        1.2252104022       -3.1103645621
 H       -10.7832410478       -0.0198019155       -5.3813307020
 H        -9.5831807613       -0.9250508652       -4.4229644698
 H        -8.6391871299       -1.3803654887       -8.1496969572
 H        -7.2832555660       -0.2683506794       -8.1671438103
 H        -8.3671710765        1.1965660437       -9.8016627511
 H        -9.9006752139        0.1396688307       -9.7333901106
 H        -7.0549644160        1.6439818249      -14.3951834691
 H        -6.0041379617        0.3883322351      -13.9723798911
 H        -5.6295275874        2.6510604623      -12.1607445015
 H        -5.2014992539        3.1871905297      -13.8659426003
 H        -0.5482326805        0.1865877654      -12.6655182319
 H        -2.0256389924       -0.3230814040      -13.3048669986
 H        -2.0978538295       -2.3868317173      -12.1176230260
 H        -1.0264141798       -1.8137168883      -10.8657984312
 H         1.5881241870       -6.2051802197      -12.6692998889
 H         2.0810310572       -4.5981392902      -12.0380771673
 H         3.5606850273       -4.3029517498      -14.0081793228
 H         3.5609561749       -6.1272445569      -14.2045478664
 H         8.7440502365       -3.9733514415      -13.2175251716
 H         8.1103528007       -4.2392372539      -11.5949469802
 H         8.7012196004       -1.8788134964      -11.2625645954
 H         7.1599601776       -1.6368659492      -11.8845683790
 H         8.0963512727        1.4075266896      -14.8347237269
 H         8.5657256732        2.8925837843      -14.0411630966
 H         6.1107095471        2.7446292073      -14.2133522030
 H         6.5982585676        2.8572123094      -12.4780102235
 H         2.6476767111       -1.0788244813      -14.1567409081
 H         4.1593196213       -1.0291905575      -14.6709280553
 H         2.7547796878        0.6875111986      -16.5889368534
 H         1.8017565283       -0.7196847075      -16.2542037003
 H         5.3163471335        0.7687552847      -18.9193708150
 H         5.0473749392        0.5045058741      -20.6513098391
 H         7.5727760076        0.1963883076      -20.0967457019
 H         6.8987190649       -1.1846642355      -20.7523454447
 H         7.1526658646       -5.6845857822      -19.4761263899
 H         6.7570732230       -6.1966382427      -17.8389450230
 H         8.4121430947       -5.8452806555      -18.3114248301
 H         9.2665961195       -3.9209764226      -20.1381510653
 H         8.5807074997       -2.4807457315      -20.6479884845
 H         7.6554719248       -4.0123382109      -20.5259202543
 H         9.5736590158       -3.6590786327      -17.3086896527
 H         9.0237967874       -2.0153013405      -16.7611408503
 H        10.0765800085       -2.4297712148      -18.2513690291
 H         1.5683572295       -2.0732144739      -19.9524848257
 H         1.2147334783       -2.0395743803      -18.2799225693
 H         2.5946845005       -3.1153731052      -18.9399988081
 H         1.5632171339        0.4111016557      -18.5401665842
 H         2.2390314728        0.1676130619      -20.2128957328
 H         3.1425407029        1.0803332796      -19.1382320700
 H         4.2011125229       -1.3754966393      -12.6666577204
 H         2.8799289917       -0.6921301356      -11.9202712139
 H         4.3899409701       -0.5801551184      -11.0605093321
 H         4.5822861270        2.1321939773      -11.0515104321
 H         2.8167412815        1.5959168244      -11.3902959452
 H         3.7721663247        2.8281807590      -12.4378579823
 H        11.4544019823        0.6817813692      -11.7834324498
 H        11.6457679470       -0.9682741221      -12.3557170957
 H        10.6309334028       -0.7136121603      -10.9940022597
 H        10.0128598331        0.5091860899      -15.1106629893
 H        10.7414278884       -0.9358349604      -14.9109093005
 H        11.5159057082        0.4395653267      -14.2694292689
 H         6.0787352915       -6.6523239257      -10.8160389513
 H         6.1773483467       -4.8570083101      -10.4766986100
 H         7.5370070318       -5.8227699783      -11.0753173126
 H         6.1053026320       -7.5327992185      -13.1423500694
 H         7.4061971897       -6.3725308735      -13.8760490860
 H         5.7575372342       -6.3151517050      -14.4905973062
 H        -0.1391451392       -4.8052919735      -11.4159953814
 H        -0.5472646135       -5.9296525645      -12.7918374437
 H        -1.8903636878       -4.8371300786      -12.0605333305
 H        -1.5136973415       -4.9609870621      -14.8696646655
 H        -1.2903660093       -3.2458697540      -15.1727438092
 H        -2.5393371213       -3.6069539969      -14.0281933067
 H        -1.1430393290        2.8205602797      -11.0725440637
 H        -2.2278188133        3.8150027778      -12.0521897141
 H        -1.3811508645        2.5558876972      -12.8268311754
 H        -4.5081371200        1.5794113179      -10.1454530098
 H        -3.9829757712        3.2647279492      -10.4786976051
 H        -2.9571313390        2.0598276259       -9.4895573766
 H        -6.9488044174       -1.5249262833      -13.2554807436
 H        -8.3054516249       -1.0280455444      -14.3042274276
 H        -8.6661883542       -2.1619890650      -12.9901838762
 H       -10.4622375510       -0.1475284947      -12.0471555905
 H        -9.7982152468        0.7675820200      -13.4553723345
 H        -9.7637780976        1.4352439093      -11.7785790590
 H        -6.2486449802        2.0787783795       -5.9041513629
 H        -7.3972115049        3.0020672077       -4.9681056109
 H        -7.6391052191        2.9331735938       -6.7146681797
 H        -6.6474621866        0.1358469818       -4.3568858729
 H        -6.1018713678       -0.0752789286       -5.9163896289
 H        -7.4251475426       -1.1306272134       -5.2985208820
 H       -12.9566597915        0.2511829318        0.5577242172
 H       -12.9813081584        1.2192967093       -1.0036781457
 H       -11.5643953644        0.7822373264       -0.3638226997
 H       -10.4557530424       -1.3560852405       -0.3101776175
 H       -11.2174964256       -2.7816276840       -0.9664552404
 H       -11.9135356466       -1.9826861389        0.4638526778
 H       -18.9666189973       -2.5105552128       -4.9416520259
 H       -17.4692854715       -3.1767449287       -4.3437954613
 H       -17.5683437156       -1.5416252686       -4.9476087113
 H       -20.0319252729       -0.7720716535       -1.6134347618
 H       -20.7704202394       -1.5145232643       -3.0583410647
 H       -19.7843378760       -0.1122311219       -3.2981971936
 H       -18.8559320284       -7.6992500698        0.7120604753
 H       -19.7841638123       -6.6275801332        1.8831198683
 H       -18.6887038402       -7.8531354832        2.3632229741
 H       -16.8357911823       -6.4366634894        3.6064283219
 H       -18.0512813412       -5.1889695552        3.4226009228
 H       -16.3576238599       -4.9307934461        2.7899582770
 Na      -15.6050249718       -4.2880561883       -0.9378156195
 Na        6.3120133503       -1.9358361773      -15.5996864578
