232

 C       -16.2052670043       -8.4125036171        0.9998168284
 C       -16.3695993090       -6.8060807323        0.6753385719
 O       -15.5638757118       -6.2518596052       -0.0065813678
 C       -17.4212769235       -6.0843280271        1.5417900502
 C       -17.7612658048       -4.6243501199        0.8840992002
 O       -16.9558242159       -3.7234846915        0.9722824318
 C       -19.1716621821       -4.4761221476        0.2143117175
 C       -19.3709364017       -3.1962760399       -0.6288761620
 C       -18.4894173754       -3.1124012158       -1.9082332127
 O       -17.5173750733       -3.7884320433       -2.1946279678
 C       -18.7144266433       -1.9078309390       -2.8750662657
 C       -17.5724528434       -0.9114658511       -2.5638134454
 O       -17.8311350103        0.2007164160       -2.1347034446
 C       -16.0857396766       -1.2900354984       -2.6630732611
 C       -15.1467717942       -0.6920811859       -1.5777490140
 C       -13.8838337718       -1.5396754175       -1.4927582626
 O       -13.9879395343       -2.7193574998       -1.6750708897
 C       -12.4702024807       -0.8563216229       -1.2101764808
 C       -11.8193919683       -0.8114503698       -2.7098313733
 O       -12.2574707418       -1.4416222659       -3.6761750260
 C       -10.6101587255        0.0624635258       -2.9950332327
 C       -10.2060666981        0.2043037607       -4.4294106205
 C        -9.1778556627        1.2652421612       -4.6688308801
 O        -9.2115273724        2.3166759251       -4.0768705987
 C        -8.1436874421        0.9408516789       -5.8126375190
 C        -8.8737534557        0.6697617535       -7.1145824955
 O        -9.8992813076        1.2239345985       -7.3553290138
 C        -8.2337628837       -0.2894666601       -8.0931416294
 C        -8.8240950004        0.0169961513       -9.5160288505
 C        -8.1728685038       -0.7772632868      -10.6430480117
 O        -7.5361071017       -1.7825416910      -10.4558283034
 C        -8.1358890485       -0.1626189933      -12.1408439378
 C        -7.0832292465        0.9859028045      -12.1479693227
 O        -6.9953231417        1.6931750914      -11.1502309165
 C        -6.1426954453        1.1162342123      -13.3342858411
 C        -5.2496316515        2.3906647429      -13.3546329448
 C        -3.8043681996        1.8819766416      -13.2143276334
 O        -3.1794560238        1.5307077719      -14.2751701745
 C        -3.1164344892        1.8131561681      -11.7959835224
 C        -2.7633495589        0.2571470979      -11.7057596565
 O        -3.5173940609       -0.5373926390      -11.1831577233
 C        -1.5189020146       -0.2297202612      -12.2873814696
 C        -1.1155460445       -1.6408642174      -11.8145584282
 C        -0.0568492433       -2.3352457849      -12.7341003858
 O         1.0200738034       -1.8034232778      -12.9801133841
 C        -0.5859448934       -3.7094226935      -13.2714752929
 C         0.7584460099       -4.3823059587      -13.8133851616
 O         0.9779091209       -4.4343327616      -15.0097708354
 C         1.8430762690       -4.7920108785      -12.7646802286
 C         3.2056423750       -5.2139740226      -13.3043545132
 C         4.1720961805       -4.9870159052      -12.0514697730
 O         3.8041400972       -4.4788068223      -11.0278980806
 C         5.7365886571       -5.3159332389      -12.2782285020
 C         6.4515527415       -3.9183658973      -12.7587495324
 O         5.8529066172       -3.1824669463      -13.5091734446
 C         7.9011677759       -3.5696875137      -12.3780616183
 C         8.1641024706       -2.1135504495      -12.1611345390
 C         8.8453921263       -1.3729123879      -13.3964860867
 O         8.6626815649       -1.7332274749      -14.5648335241
 C         9.8565737047       -0.2013211073      -13.0538804568
 C         8.8764578925        1.1076537497      -12.7708514220
 O         8.8586531376        1.5979170713      -11.6488356675
 C         7.9696813788        1.8126266737      -13.7775877404
 C         6.5408941476        1.9132044716      -13.1819949033
 C         5.7385237090        0.5957937872      -13.1989498544
 O         6.2403445340       -0.3863656204      -13.6505374219
 C         4.3527707222        0.4655321739      -12.6327743189
 C         3.6432308186        0.4018699604      -14.0273636369
 O         3.4676569688        1.5342540922      -14.5085946706
 C         3.3879665322       -0.9176937824      -14.8560222152
 C         2.6806931782       -0.6461199028      -16.2475375856
 C         3.6323291140       -1.2057710841      -17.3573662718
 O         4.5690514557       -1.8428810639      -17.0199174414
 C         3.1479562892       -1.1944904321      -18.8320237373
 C         4.5567798290       -1.5540110588      -19.7233021808
 O         4.8188573630       -2.6359428729      -20.1355880174
 C         5.5866241385       -0.4153020043      -19.9220688708
 C         7.0711344770       -0.7005292517      -19.9597446637
 C         7.5520636732       -1.5002600071      -18.6616121005
 O         7.4508205417       -0.9707031639      -17.5748492507
 C         8.2234662701       -2.8648723768      -18.7182880080
 C         7.1837899932       -3.9052629135      -18.0633283422
 O         6.7250337540       -3.6753698095      -16.9743697285
 C         6.7908679531       -5.1068821390      -18.8302141851
 C         8.5114793512       -3.3540531938      -20.1562695669
 C         9.5765795986       -3.0097669662      -17.9394814057
 C         2.0939826729       -2.2647068491      -19.1824937711
 C         2.6568098336        0.2176914076      -19.3111736055
 C         4.1736393285       -0.8581249215      -11.8381587410
 C         3.9258406311        1.6400561605      -11.7421750310
 C        10.7838909870       -0.3871218611      -11.8836800473
 C        10.6730502784        0.2743803461      -14.2814117398
 C         6.4270235970       -5.9344545065      -11.0277649881
 C         6.0024429554       -6.1567624274      -13.6678763225
 C        -1.1230723487       -4.5308722923      -12.1309276448
 C        -1.6322565666       -3.3107917719      -14.3483241826
 C        -1.7685633583        2.5453373215      -11.5736600591
 C        -4.0688655477        2.2149055164      -10.6927115773
 C        -7.9362493183       -1.2482542884      -13.2517711896
 C        -9.4075809945        0.6926797798      -12.4566038544
 C        -7.2678887171        2.2109814230       -5.9825289383
 C        -7.2008898822       -0.1712907485       -5.3420704754
 C       -12.6099397961        0.5879417289       -0.7533793880
 C       -11.6009790692       -1.7693274611       -0.3261431677
 C       -18.4478322285       -2.3374017844       -4.3863512966
 C       -20.0804937322       -1.1680688084       -2.7038186781
 C       -18.6476494196       -6.8410708327        1.8994363113
 C       -16.5422716696       -5.8451447126        2.9027594247
 H       -15.2430082081       -8.7722326528        0.7247990927
 H       -16.9869880853       -8.9580831435        0.5111368985
 H       -16.3286814380       -8.7142907670        2.0763988303
 H       -19.9092747153       -4.5394253618        1.0134585346
 H       -19.3748818263       -5.3287788660       -0.4063379716
 H       -18.9821071736       -2.5201254518        0.1597306648
 H       -20.3569189532       -3.1845067235       -1.0029663699
 H       -15.6704244887       -0.8596572047       -3.6488366010
 H       -16.0339092379       -2.3765309568       -2.7537008586
 H       -15.5386788592       -0.6700286077       -0.5928733171
 H       -15.1055954274        0.3887133184       -1.7263819902
 H        -9.7149861105       -0.4555868417       -2.4718362846
 H       -10.7082023012        1.0165160068       -2.4755757015
 H       -11.0631287026        0.4380269112       -5.0262463408
 H        -9.8573663972       -0.7680928985       -4.6944206122
 H        -8.3561746542       -1.3348614753       -7.8369947876
 H        -7.1926606571       -0.0956422564       -8.1466479798
 H        -8.5776471144        1.0714137227       -9.6185525127
 H        -9.9171943525       -0.1370353029       -9.5182497957
 H        -6.7428371772        1.0195948279      -14.3006441423
 H        -5.4762692197        0.2141549593      -13.2514488726
 H        -5.6130533253        3.0222764968      -12.6148527159
 H        -5.3213395931        2.9375909800      -14.3266305261
 H        -0.8617661386        0.6027553532      -12.2767299196
 H        -1.6263387409       -0.4055101648      -13.3706161680
 H        -2.1247763345       -2.1845868371      -11.7650532338
 H        -0.7527317255       -1.7444484962      -10.7825471419
 H         1.4370174375       -5.4993029451      -12.0714485468
 H         2.0305851309       -3.9222347009      -12.1473177821
 H         3.5721734623       -4.4063627572      -14.0100563633
 H         3.1556898057       -6.2436643712      -13.6121570747
 H         8.4954835478       -3.9667099669      -13.1427460927
 H         8.1761767762       -4.1192610790      -11.4491205484
 H         8.7802907532       -1.8904758560      -11.2656905643
 H         7.2065445296       -1.5491719222      -12.0395556506
 H         8.0301057218        1.4682347489      -14.7873725288
 H         8.3377584734        2.8420021857      -13.7818387863
 H         5.9888532809        2.6404477392      -13.7935828859
 H         6.5133715541        2.4044364315      -12.2909915892
 H         2.7395476719       -1.4778002952      -14.1189001004
 H         4.2317139800       -1.6167116248      -14.8176448400
 H         2.3668258787        0.4432811349      -16.3049925522
 H         1.7424127872       -1.2612303525      -16.2527294760
 H         5.4303726295        0.4371235725      -19.2851299890
 H         5.4159872179       -0.0415122523      -20.9100482095
 H         7.6093826373        0.2829306433      -19.9383268693
 H         7.3576309601       -1.1839601761      -20.8786261812
 H         6.3085498322       -4.8926150983      -19.7906762602
 H         6.2609827615       -5.7509270354      -18.2229278525
 H         7.6175899966       -5.7050039381      -19.1234541108
 H         8.8707591152       -4.3281900081      -20.2219352552
 H         9.3213721689       -2.7419704433      -20.6379636802
 H         7.5641396611       -3.3860558865      -20.8257899920
 H        10.1101328375       -3.9063993045      -18.2243016130
 H         9.2709959768       -3.0584210208      -16.8834181071
 H        10.1834151392       -2.1113338967      -17.9194133851
 H         2.0490593690       -2.3117240501      -20.2501479249
 H         1.0640158331       -1.9419815939      -18.8378476735
 H         2.3238868241       -3.1546610750      -18.6294362418
 H         1.8590381889        0.4489889031      -18.6652870029
 H         2.3718207687        0.2460436453      -20.3378022049
 H         3.4545526536        0.9868748130      -19.0874156557
 H         4.6573281750       -1.6945379478      -12.2934180242
 H         3.1145561863       -1.1247420884      -11.6807370340
 H         4.5514289624       -0.7235363363      -10.8135097355
 H         4.3948343514        1.5253108720      -10.7881262764
 H         2.8466425375        1.5778337654      -11.5568772902
 H         4.0976672265        2.5490264707      -12.2341542366
 H        11.4426622556        0.5762345568      -11.8589326967
 H        11.3602142019       -1.3077704858      -11.9588667382
 H        10.1661361919       -0.4623142338      -11.0211104847
 H        10.0947605623        0.3394202471      -15.2581047275
 H        11.5710314305       -0.2987729471      -14.6192360594
 H        11.0048598239        1.3234940884      -14.1249534048
 H         5.9452181160       -6.8450760192      -10.6282775955
 H         6.6005621073       -5.1258691197      -10.2771363671
 H         7.3631564115       -6.3023630921      -11.3581341638
 H         5.3691338226       -7.0312218573      -13.6817622066
 H         6.9503912535       -6.5932578495      -13.6879648255
 H         5.8755914325       -5.6151320216      -14.5346697988
 H        -0.2967774288       -4.5753214957      -11.4413733999
 H        -1.4087219740       -5.4783395251      -12.4759892761
 H        -1.8558168611       -4.0114879908      -11.6027607415
 H        -1.9646820776       -4.1169008320      -14.9617362614
 H        -1.3862087175       -2.4868575344      -14.9404225039
 H        -2.5119424044       -3.0957465950      -13.8026895327
 H        -1.2822383273        2.0733268287      -10.7393705990
 H        -2.0450041567        3.6193877325      -11.4264006089
 H        -1.1025021999        2.5087757124      -12.4793331800
 H        -4.9341283699        1.6499274057      -10.9283642828
 H        -4.2314319292        3.3410195760      -10.7617416118
 H        -3.6438397176        2.0025191102       -9.7130213042
 H        -7.2624323012       -2.0026246791      -12.8402273427
 H        -7.5253961634       -0.9369056270      -14.1797726467
 H        -8.8921514379       -1.6807461172      -13.5920058388
 H       -10.2483072774       -0.0181217512      -12.4735265093
 H        -9.3358655421        1.0182442511      -13.5088381597
 H        -9.6087903394        1.4038661851      -11.7119525825
 H        -6.4497734751        1.9460505721       -6.5854009890
 H        -6.9615999338        2.5118444505       -4.9524493794
 H        -7.8004173322        3.0892660578       -6.3648106620
 H        -6.6480171789        0.1647183913       -4.4704566450
 H        -6.4004716476       -0.3232064341       -6.1721495835
 H        -7.6830430820       -1.1178115146       -5.1449722282
 H       -13.2273189348        0.7707740987        0.1031318614
 H       -12.9018808939        1.3372769204       -1.4888269062
 H       -11.6340143867        0.9634554149       -0.4639305203
 H       -10.5734362264       -1.5294548091       -0.6221865946
 H       -11.6677052973       -2.8851497456       -0.4618576802
 H       -11.9166648690       -1.4404348085        0.6609239104
 H       -19.1200340962       -3.1031231103       -4.7003096959
 H       -17.4181672111       -2.6592359155       -4.4763225235
 H       -18.6706687489       -1.5710084384       -5.1520965485
 H       -20.0773175559       -0.6507996119       -1.6709474446
 H       -20.8895238600       -1.8323788971       -2.5237038421
 H       -20.2814720938       -0.5385584243       -3.5340464572
 H       -19.4666913440       -6.8667790669        1.1873390714
 H       -19.1805673404       -6.2324725381        2.7211449875
 H       -18.4752335613       -7.8311940740        2.1973209481
 H       -16.2306773108       -6.8215504911        3.3746879952
 H       -17.1797170794       -5.2118861990        3.5261404203
 H       -15.6639211197       -5.3172511936        2.6122472875
 Na      -15.6499474040       -4.0438310844       -0.9382324689
 Na        6.7105264493       -1.7680069240      -15.4931260241
