232

 C       -16.5015849796       -8.3092026210        0.4944925075
 C       -16.2565239466       -6.7513354612        0.6143950708
 O       -15.5389946083       -6.2161590320       -0.2459233109
 C       -17.0933138324       -5.9071963536        1.7362823022
 C       -17.6115319529       -4.6120597341        1.0018560295
 O       -16.8278766276       -3.6384912661        1.0375780441
 C       -18.9391493010       -4.6134217636        0.2900073704
 C       -19.2225575839       -3.2286265764       -0.4075450239
 C       -18.5252690095       -3.1696633060       -1.8096737202
 O       -17.5316314930       -3.8289192160       -2.1541926775
 C       -18.9003312599       -1.9989833347       -2.8076691151
 C       -17.7449585644       -0.9166864010       -2.4123558690
 O       -18.0815509785        0.0085368945       -1.7339145249
 C       -16.2618096162       -1.0852336181       -2.8034410976
 C       -15.3035781126       -0.5183729541       -1.7193395224
 C       -13.9595784262       -1.3558022069       -1.5326364352
 O       -14.0109324574       -2.5389078513       -1.2472264257
 C       -12.6019121409       -0.6668678042       -1.4541241370
 C       -11.8870247277       -0.7289733411       -2.8363800083
 O       -12.3597005875       -1.3888355400       -3.7234716052
 C       -10.5764183245       -0.0418479511       -3.0564635071
 C       -10.2851946228        0.3847719228       -4.4696284659
 C        -9.0440111938        1.4411421972       -4.6356759897
 O        -8.9952045213        2.4035636155       -3.9125353227
 C        -8.0621825859        1.0701426537       -5.8045240102
 C        -8.9677604650        0.5592519904       -7.0981156862
 O       -10.1868969668        0.6612060501       -7.1413118214
 C        -8.1348879700        0.0473949988       -8.3022050230
 C        -9.0074200015       -0.0743612542       -9.5575829568
 C        -8.2210974821       -0.8891903058      -10.5839715013
 O        -7.5795433739       -1.9057483757      -10.2700112262
 C        -8.1523039268       -0.2815393553      -12.1975343019
 C        -7.0957671341        0.7857204105      -12.2917861032
 O        -7.1195185371        1.7199481775      -11.4515480410
 C        -6.0221413111        0.8520838512      -13.3985479449
 C        -5.3768348816        2.2712934403      -13.4615614098
 C        -3.8259210638        2.2098046790      -13.2586152507
 O        -3.1294156037        2.1894914991      -14.3066754154
 C        -3.1149005372        2.0382470241      -11.8520010576
 C        -2.8294672469        0.4958914459      -11.8378259297
 O        -3.8104771290       -0.2666343731      -11.6318711158
 C        -1.5464801249       -0.1220525269      -12.0858082975
 C        -1.5046973882       -1.5556122241      -11.5850845112
 C        -0.3480429975       -2.1968513358      -12.4741419224
 O         0.7386127479       -1.7502903968      -12.6802555908
 C        -0.6044487846       -3.5899987699      -13.1291190081
 C         0.7466085116       -4.2785147198      -13.4331828353
 O         1.0032803232       -4.4212660506      -14.6057898927
 C         1.6877726528       -4.5252243411      -12.3138649134
 C         3.0673573132       -4.7124448340      -12.9805447578
 C         4.2191847598       -4.6341468906      -12.0096964002
 O         4.1133867131       -4.0746582700      -10.9066455533
 C         5.6921740362       -5.1173630159      -12.3409797384
 C         6.4606177956       -3.8764723254      -12.8962561885
 O         5.7992692283       -3.3419834854      -13.7491929539
 C         7.9436750577       -3.6324306058      -12.5621296145
 C         8.2010336013       -2.1665764270      -12.2130328093
 C         9.1531960657       -1.5431748633      -13.2564101655
 O         9.3331820449       -2.1322138215      -14.3503015867
 C         9.8361695872       -0.1850825376      -13.0183442914
 C         8.8154738490        1.0408024797      -12.5501562921
 O         8.6701137426        1.2824048415      -11.3539686225
 C         7.9495785375        1.6980697143      -13.5772078762
 C         6.5637647749        1.7997015363      -12.9719779833
 C         5.7641385237        0.4355158562      -13.2729695172
 O         6.2468782920       -0.3553905069      -14.0165738299
 C         4.2348861747        0.3334715063      -12.9101447524
 C         3.3896345651        0.3252842573      -14.3017393883
 O         3.1429220896        1.3993519029      -14.8635987363
 C         3.2295817376       -1.0448866444      -14.9046683122
 C         2.7332317128       -0.9270181080      -16.3208106333
 C         3.7746424801       -1.3583992910      -17.2364323469
 O         4.8278600990       -1.8485933463      -16.8984311109
 C         3.4356017279       -1.2181970402      -18.8041204323
 C         4.6268822868       -1.3413516292      -19.8051767260
 O         4.7922515902       -2.4350893381      -20.3547772028
 C         5.7975064705       -0.2737406221      -19.9858660281
 C         7.0947529875       -1.0238376332      -20.1455066977
 C         7.7063458851       -1.6626424518      -18.8030264313
 O         7.5950301963       -1.0323926529      -17.7239918977
 C         8.3321432614       -3.1100833630      -18.8562640507
 C         7.3841039802       -4.1668215014      -18.1823285464
 O         7.2722544244       -4.2905034635      -16.9310768327
 C         6.3619795879       -4.8660957157      -19.0698735188
 C         8.6747035829       -3.5487703596      -20.2850665943
 C         9.6177483497       -3.1477109048      -17.9579581535
 C         2.5312723074       -2.4829046356      -18.9586217480
 C         2.6796245795        0.0821562473      -19.0670142141
 C         4.1474271898       -0.9878436276      -12.2787812637
 C         3.8038973857        1.5316993883      -12.0304470557
 C        10.9963956526       -0.3705611022      -11.9167932975
 C        10.5198838307        0.4851452270      -14.1793235851
 C         6.4239086391       -5.8318847972      -11.1420570570
 C         5.6268004105       -6.0358456937      -13.5525087685
 C        -1.5796902734       -4.4219874681      -12.3493471312
 C        -1.3272411998       -3.1161911630      -14.4496542002
 C        -1.8595518505        2.8912224128      -11.6732833794
 C        -4.1024011993        2.4217643692      -10.6728654019
 C        -7.8101090810       -1.5253383479      -13.0820068504
 C        -9.4761355152        0.2995376106      -12.4620877268
 C        -7.0527315831        2.1994426454       -6.0353059076
 C        -7.2671176222       -0.1481923554       -5.3291240834
 C       -12.7303514727        0.8435689748       -1.0181655262
 C       -11.6620468800       -1.3834098636       -0.3149242187
 C       -18.6713672606       -2.5371866549       -4.2072269795
 C       -20.3641224613       -1.4733836059       -2.4299132196
 C       -18.3288881033       -6.7013153899        2.3337949281
 C       -16.0877511771       -5.5464786613        2.8418459032
 H       -15.9904012644       -8.6265500044       -0.4223517861
 H       -17.5544385166       -8.4177386030        0.2563375801
 H       -16.1623786597       -9.0181945167        1.2530882925
 H       -19.7600212327       -5.0219808588        0.9164086601
 H       -18.9767908752       -5.3306652649       -0.5586625119
 H       -18.6312963611       -2.4037870897        0.0897790946
 H       -20.2547323279       -3.2478227994       -0.4499358509
 H       -16.2387868589       -0.5513768099       -3.8189779150
 H       -15.9369187213       -2.0953468039       -3.0083920820
 H       -15.8691222443       -0.4308705388       -0.7730078754
 H       -15.0812534753        0.5120270469       -1.9947792747
 H        -9.7321326410       -0.6389117683       -2.6032139281
 H       -10.5377614423        0.8124517963       -2.4365624556
 H       -11.2048415959        0.8776755184       -4.7237164951
 H       -10.1200167659       -0.4971833631       -5.0587221113
 H        -7.7057720463       -0.9589910027       -8.0192255057
 H        -7.3041282693        0.7604658697       -8.4803315780
 H        -9.2312254520        0.9483111654       -9.7844863620
 H        -9.9862521903       -0.4826248599       -9.2819354362
 H        -6.5534845721        0.7923888151      -14.4157257424
 H        -5.2900282068        0.0099739151      -13.3932409011
 H        -5.7381893074        2.9620184095      -12.7962033319
 H        -5.7177315019        2.6583180582      -14.4440819949
 H        -0.7165209121        0.5045948598      -11.7549079013
 H        -1.5006779853        0.0134388997      -13.1975911686
 H        -2.4955070248       -2.0085347946      -11.5233232784
 H        -1.1743036800       -1.5611353825      -10.5256217963
 H         1.2948415265       -5.3955765152      -11.7738803626
 H         1.6142965200       -3.7889801176      -11.5026992753
 H         3.1948808041       -3.8109697181      -13.6729306328
 H         3.0458511470       -5.7094232550      -13.3881991483
 H         8.4293692659       -3.8828602400      -13.4681639646
 H         8.3454233557       -4.2796631231      -11.7673644143
 H         8.5235720821       -1.9443956963      -11.1730416513
 H         7.2665245420       -1.6318758572      -12.5578256552
 H         7.9821183796        1.1123703681      -14.4340991764
 H         8.3830753738        2.6647425054      -13.7312034596
 H         6.0408132981        2.5636229682      -13.4528266961
 H         6.5251231663        2.1832830309      -12.0181406228
 H         2.4840811136       -1.6909820750      -14.3371266893
 H         4.0623676268       -1.7189260631      -14.7875936884
 H         2.4219676608        0.1165865310      -16.5519602867
 H         1.8481457499       -1.5950556069      -16.4213484013
 H         5.8786605690        0.3336050158      -19.0464785663
 H         5.7619576759        0.4812216549      -20.7734489911
 H         7.8398070420       -0.2890700095      -20.4811465695
 H         6.9255355317       -1.8042919887      -20.8409434127
 H         5.8832931394       -4.1130662123      -19.6728636215
 H         5.7266487693       -5.3687791099      -18.4191591068
 H         6.6475471741       -5.5764535111      -19.8411331727
 H         9.1121280236       -4.5475669589      -20.2301355300
 H         9.4614006157       -2.9187487882      -20.6951831407
 H         7.8528189287       -3.4261389130      -21.0485157076
 H         9.6170199112       -4.1221287440      -17.6007840378
 H         9.7396492607       -2.4300105158      -17.1652368417
 H        10.4503727168       -2.9259684699      -18.5578207261
 H         2.0049539209       -2.3797962875      -19.8649151465
 H         1.9490972587       -2.7810675289      -18.0421506406
 H         3.1633377127       -3.3187134367      -19.1121281351
 H         1.7840889567        0.2223632450      -18.5104146252
 H         2.3418311281        0.0719679696      -20.0847006880
 H         3.4187979425        0.9091828283      -18.8078967765
 H         4.6849716496       -1.7470078478      -12.7966211067
 H         3.0809274434       -1.2370325563      -12.0732153534
 H         4.7473191878       -1.0533626958      -11.3521496777
 H         4.3397673785        1.4970022729      -11.1339063622
 H         2.7371754731        1.3568210195      -11.7473517345
 H         3.7593672914        2.4342774154      -12.5787692415
 H        11.9116934647       -0.1504475807      -12.4964585532
 H        10.9076304264       -1.4333297200      -11.5432304199
 H        10.9591652641        0.4567801848      -11.2186126594
 H         9.8121317633        0.8869805555      -14.8735555172
 H        11.1743479155       -0.1314789254      -14.7174853741
 H        11.0437764258        1.4712171010      -13.9076701188
 H         5.8808604688       -6.7704932251      -10.8231422778
 H         6.4969448563       -5.2011640121      -10.2178827588
 H         7.3970665067       -6.0565033646      -11.5015868542
 H         4.9141545624       -6.8197526888      -13.1927622252
 H         6.4932492190       -6.6213667466      -13.7856088905
 H         5.2306649238       -5.5824184121      -14.3997206180
 H        -1.2797278979       -4.4363695337      -11.2925425751
 H        -1.5908138458       -5.4151228927      -12.8188848983
 H        -2.5578481452       -3.9926433261      -12.4085718151
 H        -1.6884283078       -3.9575908820      -15.0924952540
 H        -0.5538550470       -2.5269366290      -14.9426962567
 H        -2.2735737970       -2.5825011103      -14.3184956119
 H        -1.4476619303        2.6215114910      -10.7208739037
 H        -2.0996066308        3.9500689548      -11.6408676703
 H        -1.1049192605        2.6163451406      -12.4498639346
 H        -4.4416984527        1.4610386505      -10.2594610124
 H        -4.9004995316        3.1191846786      -10.8664495492
 H        -3.4684904305        2.9273336032      -10.0131449912
 H        -6.8258913465       -1.5005944299      -13.4845072646
 H        -8.4078750453       -1.6256453288      -13.9549986829
 H        -7.8168442021       -2.5035975541      -12.5002488271
 H       -10.2129787478       -0.5009359080      -12.1918625958
 H        -9.6431272698        0.4483303476      -13.5869408014
 H        -9.6927998183        1.2403844976      -11.9695062968
 H        -6.8239027766        2.2866243866       -7.0718104637
 H        -6.2129364182        2.0370352641       -5.3534959762
 H        -7.4869014676        3.1648839866       -5.7416304055
 H        -6.8068680552       -0.0218755390       -4.3631481179
 H        -6.5710171743       -0.5920329080       -6.1260121442
 H        -7.9531163170       -0.9394001502       -5.1531792660
 H       -13.3471324413        1.0027664174       -0.1624023831
 H       -13.1983912932        1.4750055837       -1.7928608437
 H       -11.8736499494        1.2842118173       -0.7317718606
 H       -11.0681884356       -0.6214087128        0.1990600481
 H       -10.9744033947       -2.1447391688       -0.8654530780
 H       -12.2832849342       -2.0165934593        0.3577595502
 H       -19.4130987899       -3.2319203499       -4.4991300342
 H       -17.6792973184       -3.0303203165       -4.2366857943
 H       -18.6565130121       -1.6479900248       -4.9910003776
 H       -20.3273951515       -1.0401527972       -1.3580754754
 H       -21.0944511899       -2.2260794311       -2.3963769923
 H       -20.6064217761       -0.6936994075       -3.0640991727
 H       -18.9874860703       -7.0691495454        1.5273520996
 H       -19.0288595089       -6.0154444281        2.8089381951
 H       -18.0589987810       -7.4099050154        3.0683722993
 H       -15.5408655044       -6.4562197006        3.1182154103
 H       -16.5947593286       -5.0707973138        3.6515472713
 H       -15.4350357198       -4.8335322878        2.4557489919
 Na      -15.6499188342       -4.0340711472       -0.8894818336
 Na        6.9917534296       -2.3449568429      -15.6151680252
