232

 C       -16.6205534822       -8.2314788078        0.5627169995
 C       -16.4065586691       -6.7919624002        0.4511665583
 O       -16.0511309578       -6.2816021574       -0.5814011626
 C       -16.8137789181       -5.8577223277        1.6959435431
 C       -17.4640203204       -4.5567705491        1.0512047989
 O       -16.8562244982       -3.5439455169        0.8957293149
 C       -18.9077738289       -4.6436304134        0.5734562965
 C       -19.3351116358       -3.4422044132       -0.2164776870
 C       -18.5646294337       -3.4396327467       -1.4809854848
 O       -17.8028735461       -4.3693495979       -1.8557143016
 C       -18.8578891490       -2.1698661640       -2.4623540381
 C       -17.7631319544       -1.1050552908       -2.0213882317
 O       -18.0824591814       -0.2257908054       -1.2000890879
 C       -16.4365349291       -1.1694080457       -2.7523298570
 C       -15.2659660865       -0.3397203538       -2.1280771094
 C       -14.1591574659       -1.0293673185       -1.3244267028
 O       -14.1864741216       -2.2129292863       -0.9631437153
 C       -12.8426138109       -0.1779965452       -1.2080173642
 C       -12.2840151106       -0.2052126745       -2.7746439120
 O       -12.8471928611       -0.8720398715       -3.6206178033
 C       -10.8517998645        0.4225566421       -3.0482965350
 C       -10.2815753033        0.2938640415       -4.4751101465
 C        -8.9806170017        1.1143732156       -4.7292755760
 O        -8.7372730443        1.9072090558       -3.8452362103
 C        -8.0158043997        0.9300592618       -5.9797473791
 C        -8.8130345114        0.5344692449       -7.2773840684
 O        -9.9893150839        0.6712141924       -7.4034504346
 C        -7.9311245034        0.0987603865       -8.4584034416
 C        -8.6246600568        0.2494239486       -9.7955901858
 C        -8.0463868871       -0.8226375108      -10.7083367009
 O        -7.5985089767       -1.8663857544      -10.3590819629
 C        -8.0700166656       -0.5371624940      -12.2227776778
 C        -7.4697660842        0.9036042652      -12.5657512326
 O        -7.9280499910        1.9287439574      -12.1512554311
 C        -6.1632391012        0.8188668843      -13.2393039924
 C        -5.6355502839        2.2230266520      -13.4647008882
 C        -4.1365887129        2.4958397061      -13.3659878724
 O        -3.5393905900        2.8396661809      -14.2975986852
 C        -3.3689184150        2.4540048744      -11.8663455634
 C        -3.2047621872        0.9757396721      -11.4823948649
 O        -4.0979012938        0.3834221702      -10.9607843322
 C        -1.7309576186        0.3004057837      -11.6975413400
 C        -1.9661581555       -1.1923839281      -12.2756048600
 C        -0.6141243722       -2.0340210696      -12.3392282146
 O         0.3608882067       -1.6476224487      -11.7005200002
 C        -0.4236008607       -3.4920767460      -13.1545602513
 C         0.9046991463       -4.1571255697      -13.3739037374
 O         1.1290998934       -4.7565983249      -14.4652814541
 C         2.0415387336       -4.0336670775      -12.2954910239
 C         3.2641705230       -4.8647601196      -12.8599015525
 C         4.4129816581       -4.6399535771      -11.8168400870
 O         4.3061345870       -3.8199431827      -10.9641545086
 C         5.8676134774       -5.2307204082      -12.1601349104
 C         6.5795456159       -4.2615800307      -13.0270240180
 O         6.0697482208       -3.9831508190      -14.1070884829
 C         8.0807133608       -3.8219116203      -12.7824481733
 C         8.1845724775       -2.1756464983      -12.5972589926
 C         9.2413282466       -1.4748013160      -13.5282584856
 O         9.3774633081       -1.8008769932      -14.6582259737
 C         9.9650779664       -0.2323045941      -12.8420971468
 C         8.7590594170        0.5367582254      -12.3183259048
 O         8.2105452159        0.3285629037      -11.2771562503
 C         8.0771652453        1.5682364259      -13.3295254268
 C         6.6033527128        1.6032886685      -12.9892601722
 C         5.8233134294        0.5456603650      -13.5173524054
 O         6.3085131110       -0.3883645682      -14.2067974870
 C         4.3063941337        0.4803268333      -13.1767308899
 C         3.3675416732        0.1423847199      -14.3942640537
 O         2.6884448984        1.0527668589      -14.8424616778
 C         3.3954893633       -1.2480046851      -14.9993247481
 C         2.8126266972       -1.1302799505      -16.4185614638
 C         3.8500090732       -1.5406860902      -17.5280887469
 O         4.9813988525       -1.7397363243      -17.0479656963
 C         3.4285685557       -1.4607455861      -19.0265774882
 C         4.7633751227       -1.5277472355      -19.9910509331
 O         4.8566396459       -2.2802943973      -20.9003702540
 C         5.9606940621       -0.4636281234      -19.7598050392
 C         7.2986859352       -1.2045576169      -19.9232288743
 C         7.7778143376       -1.8764834942      -18.6613867051
 O         7.7619809633       -1.3338070206      -17.6266912085
 C         8.5063615738       -3.2608395149      -18.8568688450
 C         7.5722372906       -4.3152934708      -18.1882946731
 O         7.3411336755       -4.1889702194      -17.0365885802
 C         6.7108581399       -5.2121654444      -19.0329674179
 C         8.8198491018       -3.7115192453      -20.3577942626
 C         9.8312691408       -3.2783980274      -18.0891473249
 C         2.4406295867       -2.6503025589      -19.4335912560
 C         2.8967618819       -0.1102845011      -19.4747793087
 C         4.1460632705       -0.6303220339      -12.0804479232
 C         3.7582884529        1.7427535701      -12.4936957670
 C        10.9730813400       -0.8155195030      -11.7401213187
 C        10.6959112857        0.5908675617      -13.8932381936
 C         6.6137325786       -5.7631658328      -10.9356476298
 C         5.7038040840       -6.5017588538      -13.1571134994
 C        -1.2845108775       -4.4050115477      -12.3031627317
 C        -1.1718354249       -3.2453681930      -14.3981329649
 C        -2.0563606247        3.3141165716      -11.8868542608
 C        -4.3143204287        3.0392234476      -10.6975007925
 C        -7.3731292507       -1.6305463684      -13.0072017380
 C        -9.6381487431       -0.3969869998      -12.6159403252
 C        -7.2182092385        2.2825780958       -6.1973494607
 C        -7.1208425085       -0.2285377602       -5.5333764938
 C       -13.1462069950        1.2970227510       -0.8150791411
 C       -11.9475153855       -0.7292304683       -0.0639344279
 C       -18.7097882020       -2.6115367168       -3.9580609363
 C       -20.2444532882       -1.4764704611       -2.3145296872
 C       -17.7777206975       -6.5886409862        2.6499904038
 C       -15.5633239218       -5.2998151310        2.4426436910
 H       -16.3037200431       -8.7225402633       -0.3712192484
 H       -17.7249818474       -8.3595603005        0.5673834791
 H       -16.1148897681       -8.7102496520        1.3745631340
 H       -19.6115894115       -4.9793738611        1.3316137136
 H       -18.9439172695       -5.5416438908       -0.1224699602
 H       -19.0114600586       -2.6008580866        0.4021936079
 H       -20.4182295894       -3.3853592984       -0.4725523058
 H       -16.5235813019       -0.7787747696       -3.7930857145
 H       -16.1817555675       -2.2356237165       -2.9938392425
 H       -15.7058294382        0.4964311383       -1.5415628344
 H       -14.7399132397        0.0391349394       -2.9702923551
 H       -10.0884968600        0.0063749987       -2.3540913879
 H       -10.8155575339        1.4885870253       -2.8303438419
 H       -10.9884929288        0.7077828197       -5.1939461094
 H       -10.0885037602       -0.6948394371       -4.7921560938
 H        -7.4858287923       -0.9041001947       -8.5434948802
 H        -7.0485448338        0.8217263215       -8.4665469834
 H        -8.6608033380        1.2886176813      -10.0911280770
 H        -9.7159698498        0.0784978241       -9.6869497843
 H        -6.2613801866        0.2102919984      -14.1929369346
 H        -5.5019983467        0.2014632966      -12.5711286209
 H        -6.2660047604        2.8345627648      -12.8045629110
 H        -5.8166156719        2.5484069703      -14.4082474663
 H        -1.2379386887        0.1946489084      -10.7106137314
 H        -1.1942643694        0.9486418087      -12.3538697528
 H        -2.4177017491       -1.0092181541      -13.2350634938
 H        -2.6722839514       -1.7632240210      -11.5775269522
 H         1.7717559917       -4.3964844640      -11.2673957905
 H         2.3080187896       -2.9945235074      -12.1560686885
 H         3.5767102255       -4.4951923589      -13.9002940269
 H         3.0441547652       -5.9584855241      -13.0111272482
 H         8.7390274871       -4.0884745100      -13.5994246511
 H         8.4683864969       -4.1768189313      -11.8737212490
 H         8.4655203540       -1.9599292630      -11.5639054814
 H         7.1997948419       -1.7166525540      -12.9544908700
 H         8.2057154494        1.2026574892      -14.3015889438
 H         8.5284845627        2.4963133210      -13.1555652831
 H         6.2381302681        2.4644685184      -13.4553455793
 H         6.3927622291        1.8044895184      -11.9619643754
 H         2.8349186654       -2.0828845922      -14.4592879456
 H         4.3636895454       -1.7294178794      -14.9952602255
 H         2.6354488974       -0.0672167588      -16.6294857090
 H         1.8753444852       -1.7106862305      -16.6296718593
 H         5.9310051497       -0.0566003957      -18.7403370396
 H         5.9011959528        0.3996837319      -20.4236362444
 H         8.0626713599       -0.5885793548      -20.3267422959
 H         7.0763607827       -2.0829548420      -20.5610301553
 H         6.2277848252       -4.7064009636      -19.8177969703
 H         5.9737013499       -5.7209183606      -18.3930927641
 H         7.3103709693       -5.8907752124      -19.6116308488
 H         9.3955907812       -4.6786936837      -20.4059633932
 H         9.3459307174       -2.8790895776      -20.8947610521
 H         7.8717049650       -3.8792498004      -20.8575683918
 H        10.6016903987       -3.7865708655      -18.6641422292
 H         9.7133020939       -3.8696527437      -17.2325848608
 H        10.1766282263       -2.2757039775      -17.8692378969
 H         2.6655881878       -2.9869456786      -20.4565638707
 H         1.4680930153       -2.2408546784      -19.3807298915
 H         2.5066685262       -3.5860667133      -18.8649445278
 H         1.8109703707       -0.0275513798      -19.1586248796
 H         2.9626446668       -0.0451313722      -20.5968707240
 H         3.4555590799        0.6976785970      -19.0769702998
 H         4.2996658025       -1.6711807660      -12.5428075317
 H         3.1184082880       -0.6001448434      -11.7427493680
 H         4.8609156491       -0.5169975195      -11.2236253950
 H         4.3974675364        2.1814437604      -11.7208961932
 H         2.8280957214        1.4277025649      -12.1271966880
 H         3.5710475959        2.5044755237      -13.2816284364
 H        10.8037013183       -1.8717189168      -11.6391891727
 H        10.5523097418       -0.4045186877      -10.8396027322
 H        11.9515313523       -0.4013644208      -12.1310363755
 H        10.0053073272        0.7839380130      -14.7310681204
 H        11.6112907314        0.0828250293      -14.3122408059
 H        11.0351288228        1.4946122343      -13.4610914958
 H         5.9849254382       -6.5148301665      -10.4141224890
 H         6.8608178680       -5.0101121374      -10.2184617871
 H         7.6187539097       -6.1901502152      -11.2570736005
 H         4.8962018150       -7.0607274155      -12.7873960696
 H         6.6198924017       -7.0897366141      -13.2288873345
 H         5.3977984801       -6.2281832202      -14.2162733246
 H        -1.1410668758       -4.3326077067      -11.2369053031
 H        -1.2020863521       -5.4738741012      -12.5744260124
 H        -2.3198620257       -4.1677536732      -12.6017226207
 H        -1.3189795885       -4.1781618921      -14.9797410101
 H        -0.7738509200       -2.5168580428      -15.1503547824
 H        -2.1657585380       -2.7994684284      -14.1550865668
 H        -1.7103810035        3.6632625032      -10.8909083076
 H        -2.2982969237        4.2294185915      -12.3785769187
 H        -1.2955740976        2.8785504911      -12.4745702404
 H        -5.3521200730        2.8189940021      -10.8948661368
 H        -4.2033798943        4.0927445029      -10.6488566649
 H        -4.0968948332        2.4693758194       -9.7942250647
 H        -6.5468231211       -2.0694178218      -12.4918460472
 H        -6.9201784304       -1.2931368221      -13.9271539392
 H        -7.9268682684       -2.5053806264      -13.1464311694
 H       -10.0949261060       -1.3695368956      -12.5165521545
 H        -9.9728337061        0.1342743526      -13.4914972811
 H       -10.0890059550        0.2396965228      -11.7889402351
 H        -6.1108006732        2.1409389912       -6.0343478186
 H        -7.4349881739        2.9230236437       -5.3963899393
 H        -7.4270729684        2.6687778154       -7.1832722185
 H        -6.6321875785        0.0480445088       -4.5595302736
 H        -6.3138163267       -0.4143779620       -6.1535448101
 H        -7.6413153700       -1.2037975839       -5.3509487282
 H       -13.5845583123        1.4238538282        0.1355876724
 H       -13.6059376540        1.8791796371       -1.5177629739
 H       -12.1559470207        1.8308524674       -0.7941325291
 H       -10.8550058159       -0.6052508032       -0.1933422893
 H       -12.3448475490       -1.6347733563        0.3168137631
 H       -11.8996511088        0.0001274829        0.7894133087
 H       -19.5586448333       -3.3738905216       -4.1627145053
 H       -17.7672917146       -3.1878152071       -4.1253875591
 H       -18.6985655132       -1.7551223434       -4.5507349997
 H       -20.5590057225       -1.4124336256       -1.3684708429
 H       -20.9698208815       -1.8927332250       -3.0357703903
 H       -20.0913061749       -0.4051300309       -2.5486337784
 H       -18.3764963340       -7.2623816555        2.1095941570
 H       -18.2611944996       -5.8875111699        3.3478379722
 H       -17.2110403222       -7.2483061651        3.3344751845
 H       -15.1861064916       -6.0462613280        3.0442357089
 H       -15.8702292079       -4.5031323778        3.0966745881
 H       -14.8172802959       -4.8968344720        1.7320167434
 Na      -15.3959075084       -4.1234208721       -0.7661571281
 Na        6.9791427225       -2.3702154303      -15.5687457157
