232

 C       -16.6210580676       -8.2414717238        0.6413052791
 C       -16.3885071349       -6.7374901372        0.4710245017
 O       -15.9839627011       -6.2860891959       -0.6276573671
 C       -16.7705045761       -5.7964579465        1.6242864832
 C       -17.5546050457       -4.5667277382        1.0462542159
 O       -16.9094781764       -3.5069922097        0.8009373015
 C       -19.0605570628       -4.6583087918        0.8904498796
 C       -19.5215927048       -3.5661543368       -0.0744387139
 C       -18.6309692396       -3.4544039121       -1.4292480116
 O       -17.6751396201       -4.1304108077       -1.6915938367
 C       -18.8932647947       -2.2552945914       -2.4097390561
 C       -17.7679160151       -1.3146369708       -2.0363289232
 O       -17.8802468882       -0.6459961855       -1.0611624377
 C       -16.3435327657       -1.2954218134       -2.6977617190
 C       -15.4432235261       -0.2092105461       -2.0474558160
 C       -14.2354997031       -0.7990545122       -1.3215923836
 O       -14.3052946183       -1.8758913504       -0.7449519405
 C       -12.8411945650       -0.0038420809       -1.2642237068
 C       -12.1912895905       -0.1050147150       -2.7443878744
 O       -12.9215396982       -0.5486297798       -3.5901472194
 C       -10.8879273471        0.6031258483       -2.9448644997
 C       -10.1903569153        0.2103710000       -4.3022677450
 C        -8.9857434535        1.0901771255       -4.6069569531
 O        -8.7193131425        1.9532473090       -3.8148620841
 C        -8.0719540697        0.8486367912       -5.9428156096
 C        -8.8332849559        0.4759943278       -7.2398083058
 O       -10.0604207734        0.7508536949       -7.2991535708
 C        -7.9629202016        0.0763584464       -8.3880000538
 C        -8.5809576641        0.2041084206       -9.8000316408
 C        -7.9387928147       -0.8276272370      -10.7128445758
 O        -7.4900975557       -1.9001053567      -10.2976952777
 C        -8.1458287173       -0.5431220639      -12.3118498704
 C        -7.5969022214        0.8135549254      -12.7170363063
 O        -8.3480055296        1.7936678525      -12.6066793548
 C        -6.1184598485        1.0870877042      -13.1844145786
 C        -5.6689676650        2.5765675600      -13.4671457142
 C        -4.0879612571        2.6941938675      -13.3313732703
 O        -3.3201967558        2.9127264929      -14.2698882989
 C        -3.4813494606        2.5758430154      -11.8309307796
 C        -3.2545088701        0.9453169404      -11.5038950672
 O        -3.9401008075        0.4187899658      -10.6138822776
 C        -1.9059752346        0.3222523690      -11.9076948683
 C        -1.9894353903       -1.0758595583      -12.4900636232
 C        -0.5855340338       -2.0231078730      -12.3323138646
 O         0.2168468524       -1.6001078306      -11.5873263649
 C        -0.4725304968       -3.3571655503      -13.0328158781
 C         0.9722438067       -3.9196255801      -13.2814887473
 O         1.0030967958       -4.4573987340      -14.3586537922
 C         2.1896772493       -3.7284091823      -12.4598872736
 C         3.2861462840       -4.7697820912      -12.6389914610
 C         4.5703305765       -4.6791481069      -11.8155434858
 O         4.6896393652       -3.7778778410      -10.9842862152
 C         5.9477185446       -5.5716478568      -12.2111118685
 C         6.7157916317       -4.4120447792      -13.1812542610
 O         5.8968644052       -3.8875730279      -13.9647022361
 C         8.1809170756       -3.9955914603      -13.1551348452
 C         8.2669178979       -2.5827718283      -12.7014989613
 C         9.1265331127       -1.6606349338      -13.5222690389
 O         9.2713918070       -1.8639685370      -14.7377206619
 C         9.8144905602       -0.4237934386      -12.7793348719
 C         8.7297538271        0.5155381762      -12.2540333225
 O         8.3169922192        0.3189142224      -11.1357578051
 C         8.0565046400        1.4882503468      -13.2621796862
 C         6.5482564003        1.7004692777      -13.0698260000
 C         5.7276298482        0.5087943703      -13.5776733957
 O         6.2330281633       -0.3058919087      -14.2797074033
 C         4.2876055134        0.4979267701      -13.2543140209
 C         3.2443738872        0.1539255272      -14.4934495521
 O         2.5497134212        1.0200359932      -14.9147814855
 C         3.3991717707       -1.2871115143      -15.0583128332
 C         2.9695443350       -1.4633765199      -16.5678669440
 C         3.9789644593       -1.5606844689      -17.6187142326
 O         5.0180864179       -2.1288889253      -17.4181734168
 C         3.5319708676       -1.3495333151      -19.0707291147
 C         4.8391616579       -1.6319162349      -20.0698881982
 O         4.8076965516       -2.6703091350      -20.7815948406
 C         6.0136953613       -0.5309961529      -19.9878931072
 C         7.5721798114       -1.0047193487      -20.0278068280
 C         8.0184029379       -1.8327938310      -18.7865934030
 O         7.9360725211       -1.3185255152      -17.6317485393
 C         8.5579314843       -3.2440730439      -18.8716167158
 C         7.6117945181       -4.2762270811      -18.1800243513
 O         7.2177443118       -4.2596058198      -16.9728908333
 C         7.0007355363       -5.3995609025      -18.9946459883
 C         8.8833686098       -3.6322417620      -20.3620140953
 C         9.9005536189       -3.4086946922      -18.0893990211
 C         2.6004592523       -2.5314522239      -19.2429478076
 C         2.8153073138        0.0085095480      -19.2840061296
 C         4.1657259468       -0.5853300467      -12.2195434046
 C         3.8234677686        1.9004075312      -12.7158261875
 C        10.6863326377       -0.8349972411      -11.5298172333
 C        10.7962382862        0.3466112738      -13.6979972150
 C         6.6331906469       -5.6210846397      -10.8020450220
 C         5.7649824239       -6.8902866032      -12.8773656610
 C        -1.1850201867       -4.3682502289      -12.1615426833
 C        -1.2193415355       -3.2893391760      -14.3785609161
 C        -2.1891903996        3.3016855465      -11.9066475923
 C        -4.4593321222        3.2536275023      -10.8879167164
 C        -7.4759277123       -1.7330572167      -13.0837243778
 C        -9.6601908457       -0.6083497545      -12.6664561403
 C        -7.2511979126        2.2079743247       -6.1940060979
 C        -7.0261381717       -0.2876963617       -5.6477694773
 C       -13.1609758532        1.4182837286       -1.0164163276
 C       -11.9648140210       -0.6761660487       -0.2167526194
 C       -18.8590073630       -2.8676566763       -3.8479536025
 C       -20.3088368849       -1.5918237555       -2.0537341240
 C       -17.6340502715       -6.4411925646        2.7774801908
 C       -15.3973999893       -5.4398754449        2.1481291690
 H       -16.2572488476       -8.8024456443       -0.2220815312
 H       -17.6560954337       -8.4940389395        0.7633484428
 H       -16.0563523933       -8.5841460601        1.5203696293
 H       -19.4152494467       -4.6863012313        1.9402853716
 H       -19.4241316669       -5.5338480921        0.4246987847
 H       -19.5800913794       -2.5380472302        0.4126755776
 H       -20.5312037304       -3.8225822779       -0.4388748844
 H       -16.3234166047       -1.1932765910       -3.7835192525
 H       -15.8624360469       -2.2699667009       -2.6172352663
 H       -16.1878575435        0.1033982638       -1.2802462638
 H       -15.1956638395        0.6568121193       -2.7292418271
 H       -10.2183573007        0.5119404284       -2.0819246692
 H       -11.0778390427        1.7037115443       -3.0624852078
 H       -10.8773481476        0.4034177331       -5.1507377731
 H        -9.9245273501       -0.8726458621       -4.4920670626
 H        -7.7706948039       -0.9793386238       -8.2917202093
 H        -6.9782237684        0.4666409215       -8.3555041666
 H        -8.4295203718        1.2273917445      -10.1988530446
 H        -9.6704447420        0.1493679250       -9.8622680601
 H        -5.8251710985        0.5037353885      -14.0281083465
 H        -5.4328503495        0.7490472176      -12.4248882497
 H        -6.0018750269        3.3013887701      -12.7275586955
 H        -6.0294675408        2.9488786405      -14.5263086756
 H        -1.3674434445        0.2919100406      -10.9632840089
 H        -1.4787996811        1.0263609196      -12.6382389923
 H        -2.2065754609       -0.8443640814      -13.5895926877
 H        -2.8155846125       -1.5763078526      -12.0184472363
 H         1.8518105826       -3.6888279684      -11.4411125153
 H         2.6054033371       -2.7330122594      -12.7462901043
 H         3.6015168697       -4.7341017130      -13.6737931793
 H         2.9399006269       -5.7953716324      -12.6153945466
 H         8.5337739046       -4.0245854198      -14.1859431194
 H         8.8369948948       -4.6224644033      -12.5013698464
 H         8.5879482929       -2.5473192449      -11.6644060296
 H         7.3029462894       -2.1774979660      -12.8475834602
 H         8.3581498569        1.0816640770      -14.2546881903
 H         8.6433680480        2.4288225310      -13.0157557363
 H         6.3274629329        2.7033616200      -13.5932865415
 H         6.3511828821        2.0054508469      -11.9826245634
 H         2.9901750217       -2.1376872816      -14.5637924448
 H         4.4970849253       -1.5197382740      -14.9928588848
 H         2.3883651764       -0.6007526042      -16.9471277659
 H         2.3690429770       -2.3423022743      -16.7421552597
 H         5.9111047657        0.1372290493      -19.1414701996
 H         5.9345851497        0.0879663922      -20.8756699458
 H         8.0480543609        0.0254255443      -19.8757219048
 H         7.8602511743       -1.4349143611      -20.9791476057
 H         6.3293402891       -4.9515679932      -19.7408516524
 H         6.2728489014       -5.8989933567      -18.3899327330
 H         7.6512718084       -6.0504282457      -19.5955822832
 H         9.2038655106       -4.6827535559      -20.3310809301
 H         9.6328353944       -3.0083455692      -20.7420454142
 H         7.9823378926       -3.6351517989      -20.9911172434
 H        10.7531847210       -3.7899092811      -18.6380617835
 H         9.6769701085       -4.0762988041      -17.2423918755
 H        10.2879346611       -2.4337185577      -17.8091316687
 H         2.2278244205       -2.6183890576      -20.2687308484
 H         1.6804921105       -2.4989936400      -18.5892506084
 H         3.1843775821       -3.4087785406      -19.0975391012
 H         2.0438260359        0.2043447014      -18.6032830430
 H         2.4645401355        0.0372775987      -20.2755631090
 H         3.5614089470        0.8448322773      -19.2838541539
 H         4.6038623747       -1.5052267428      -12.5135477604
 H         3.0849358436       -0.7695844570      -12.0689975986
 H         4.5195598810       -0.1983679449      -11.2647985214
 H         4.0624502704        1.9842928904      -11.6928545519
 H         2.7117151697        1.7944605750      -12.7412919554
 H         4.2274604349        2.7444426009      -13.1928832883
 H        10.2016023080       -1.6816116323      -11.1972903660
 H        10.5588345674       -0.0080145512      -10.7934698352
 H        11.6649373009       -0.9007279044      -11.8370353390
 H        10.3157471496        0.4331440954      -14.6722364358
 H        11.7597504689       -0.1108097079      -13.8555978301
 H        11.0428748494        1.3873793115      -13.2060698662
 H         5.9944856653       -6.2624083983      -10.1610972877
 H         6.5122082369       -4.6127115722      -10.3211472528
 H         7.6482490668       -5.9017873813      -10.7091492387
 H         5.2932404342       -7.5795134038      -12.1738955649
 H         6.7018938522       -7.2595330507      -13.2043959218
 H         5.1952624149       -6.8312944430      -13.7340409045
 H        -0.9910218451       -4.2788207200      -11.1029897665
 H        -1.0349048368       -5.3890350664      -12.4342560709
 H        -2.2198125657       -4.2102472709      -12.3344232645
 H        -1.2009558460       -4.2186583398      -14.9003390471
 H        -0.9367120005       -2.5670800290      -15.0677910552
 H        -2.2119465200       -3.0141959995      -14.1339973441
 H        -1.6841047676        3.1806029383      -10.9464369755
 H        -2.2427127306        4.4083110549      -12.0951821763
 H        -1.5672408881        2.9402160677      -12.7988886450
 H        -5.0633548783        2.5528991669      -10.2588726127
 H        -5.0860721209        3.9497704214      -11.4634814408
 H        -3.8750805169        3.8168831221      -10.1759057972
 H        -6.3702125521       -1.7498124765      -13.0547229027
 H        -7.6583703938       -1.8340301340      -14.1453332439
 H        -7.7252417725       -2.7380476707      -12.5815620867
 H       -10.1955897330       -1.4872162768      -12.2346720756
 H        -9.5796418714       -0.8130005815      -13.7750516057
 H       -10.2692295387        0.2725528123      -12.6385317621
 H        -6.2224559416        2.0164606936       -6.1820238594
 H        -7.3040641874        2.8224649600       -5.2719225844
 H        -7.5980566991        2.7032505024       -7.0902140096
 H        -6.4410473188       -0.1439799286       -4.7609104571
 H        -6.1701390061       -0.4561015844       -6.4033408594
 H        -7.5567919201       -1.2012611050       -5.5090779651
 H       -13.6692250976        1.5132276787       -0.0303181185
 H       -13.7813221864        1.9666924282       -1.8244407846
 H       -12.2816647956        1.9795773824       -0.9736949016
 H       -10.9955160905       -0.2541409810       -0.2730101370
 H       -12.0434136020       -1.8135853306       -0.2610018148
 H       -12.1251065500       -0.3618288468        0.7867783534
 H       -19.6677676553       -3.4758108184       -4.0279595964
 H       -17.9360860675       -3.4005957972       -3.9027686627
 H       -18.8068525011       -1.9869154089       -4.5640432539
 H       -20.1176386936       -0.9869585039       -1.0909406649
 H       -21.1049155720       -2.3395300541       -2.0784179158
 H       -20.6080290849       -0.8642686238       -2.8135360988
 H       -18.6536195246       -6.8528467680        2.4763717679
 H       -17.5329503395       -5.7098113181        3.5096709485
 H       -17.2093189804       -7.3844629259        3.1957164787
 H       -14.9177491300       -6.3660168442        2.5919152167
 H       -15.5658066275       -4.7748887666        2.9984848237
 H       -14.7559406268       -4.9941288600        1.4231218789
 Na      -15.4932556107       -3.9358576198       -0.9757995598
 Na        6.7172651427       -2.3021867967      -15.6715390800
