232

 C       -16.5845713240       -8.3269767257        0.5931492017
 C       -16.4759802536       -6.7706504951        0.3737638347
 O       -15.8423703497       -6.3293044076       -0.5607776930
 C       -16.7172672050       -5.7982689028        1.6619877561
 C       -17.5187461531       -4.5283487467        1.1677204742
 O       -16.9111949850       -3.5101850807        0.8882557128
 C       -19.0299583288       -4.5461206656        0.9606895919
 C       -19.5885664014       -3.6891815733       -0.2112914980
 C       -18.7283512863       -3.3915316879       -1.3565670673
 O       -17.7743676689       -4.1777366312       -1.5445253893
 C       -18.9715976237       -2.3201026486       -2.3554712059
 C       -17.7957206514       -1.3419619099       -1.9809679011
 O       -17.8792421650       -0.7646788829       -0.8976792186
 C       -16.3983530810       -1.3588868152       -2.6871906709
 C       -15.4387582413       -0.2248906679       -2.0678007335
 C       -14.2670020155       -0.7603205181       -1.3326146217
 O       -14.2905716254       -1.8417842422       -0.6943465465
 C       -12.9466251652        0.0799458964       -1.3416548154
 C       -12.3143480989        0.0430778826       -2.8658297299
 O       -12.8135154136       -0.5013475216       -3.7990395649
 C       -10.9096778072        0.6233313812       -2.9337879565
 C       -10.1712164681        0.1534183335       -4.2208749601
 C        -8.9478566818        1.0673480910       -4.5200390491
 O        -8.6982666003        2.0050204549       -3.7944127133
 C        -8.0782176479        0.8661316361       -5.8018164789
 C        -8.8936578274        0.5571842114       -7.1870949708
 O       -10.0806891960        0.7169079217       -7.3248427152
 C        -8.0177243669       -0.0047273818       -8.3735635065
 C        -8.6240146485        0.1875128370       -9.8679313957
 C        -8.0138602199       -0.8499925723      -10.8635097229
 O        -7.4301343940       -1.7680010354      -10.4255175201
 C        -8.1550843812       -0.6203157150      -12.4128302432
 C        -7.6658943142        0.9110687709      -12.8235334732
 O        -8.4558556902        1.8172731334      -12.8046282129
 C        -6.1522360868        1.0799224878      -13.1155121115
 C        -5.6799828576        2.4309508212      -13.6087626733
 C        -4.1650624376        2.6826498671      -13.3608830652
 O        -3.4425682301        2.8508135156      -14.2367823137
 C        -3.5176766549        2.5920580232      -11.8056307207
 C        -3.1523351684        1.0803103894      -11.3868494579
 O        -3.8606086085        0.4488580574      -10.6589676878
 C        -1.8324787419        0.4191423751      -11.9962348997
 C        -2.0195489456       -1.0543789972      -12.5431102540
 C        -0.6842777354       -1.8077316225      -12.3224956959
 O         0.1656884894       -1.5233575020      -11.5336191834
 C        -0.6333997293       -3.2914953459      -13.0281170010
 C         0.9683804747       -3.8222437226      -13.4188746784
 O         1.2967482764       -4.4687420848      -14.4332083627
 C         2.2166302577       -3.6270028962      -12.2810346795
 C         3.2491833479       -4.7983454875      -12.6105908761
 C         4.5972590561       -4.5942879064      -11.8514862989
 O         4.7769853040       -3.7683440073      -10.9911961239
 C         5.8651926086       -5.4638939064      -12.2091581685
 C         6.6246608395       -4.5730524502      -13.2901772876
 O         5.9451968786       -3.8384823106      -13.9198822273
 C         8.0836631162       -4.3009995202      -13.2553169392
 C         8.1939776625       -2.7639238159      -12.6627657696
 C         9.1371733984       -1.7571768855      -13.4504013860
 O         9.1043112027       -1.7935051565      -14.6548734661
 C         9.8905013505       -0.5700165805      -12.7259380393
 C         8.6361709076        0.4363184378      -12.2569393744
 O         8.2423304275        0.4210944040      -11.1652088387
 C         8.1419689482        1.5578449693      -13.2540123128
 C         6.6355503648        1.7448593409      -13.1366430419
 C         5.7268408423        0.6219417187      -13.7190824679
 O         6.2036085221       -0.3211053107      -14.3410233960
 C         4.1477771051        0.5733377063      -13.2622833049
 C         3.4300363003        0.2162018769      -14.5884480438
 O         2.4979669975        0.8367738156      -15.0440252087
 C         3.5218611721       -1.2469906834      -15.0563143313
 C         2.9203292342       -1.5152708420      -16.5236430046
 C         4.0927620319       -1.6959114063      -17.6578838864
 O         5.1984989738       -2.1902840768      -17.4715277658
 C         3.6234821600       -1.4579755384      -19.1981923263
 C         4.8909847311       -1.6303305347      -20.0834290945
 O         5.0721953267       -2.6793537694      -20.6557128726
 C         5.9861423774       -0.5847737396      -19.9849077200
 C         7.4970579492       -1.0287888409      -19.9770774804
 C         7.9071358501       -1.8187788233      -18.7297540986
 O         7.9251901506       -1.2942679782      -17.6554059723
 C         8.5466331779       -3.3607693726      -18.8670223214
 C         7.5042783037       -4.3032991433      -18.1971729387
 O         7.2939613908       -4.1240284682      -17.0367883600
 C         7.0216573537       -5.5595602453      -19.0174091826
 C         8.9597315114       -3.6179954474      -20.4154623935
 C         9.8379263868       -3.3352433811      -18.0137910208
 C         2.4383925288       -2.5511922326      -19.3370859924
 C         2.9867666510        0.0141824516      -19.2890582405
 C         4.0298144138       -0.5437817824      -12.1661094159
 C         3.6436417141        1.9521473880      -12.6645572636
 C        10.6636319971       -0.9705194228      -11.4153089792
 C        10.8858444175        0.1673198474      -13.7300714222
 C         6.8036102012       -5.4560812293      -10.8814726938
 C         5.6937146384       -6.8401085740      -12.7533741037
 C        -1.1416886235       -4.3385607584      -12.0047872003
 C        -1.3967780817       -3.3156282013      -14.3242280956
 C        -2.1480986861        3.3180875847      -11.8407032752
 C        -4.4010073721        3.2720632976      -10.7351677702
 C        -7.3532505882       -1.7914472100      -13.1016381001
 C        -9.6571256290       -0.7036462054      -12.6392655160
 C        -7.2644426736        2.1592713681       -6.1104320448
 C        -7.0728831273       -0.2916537522       -5.4915601870
 C       -13.0866019144        1.5896337255       -0.9727988313
 C       -11.9475725985       -0.5943312339       -0.3113254897
 C       -18.8706883046       -2.8462176646       -3.8282557024
 C       -20.3410386809       -1.5559909724       -2.0854031098
 C       -17.4922744401       -6.4209663613        2.8730767833
 C       -15.3176844134       -5.4392569384        2.1166358161
 H       -16.2500979881       -8.9200249904       -0.2873488131
 H       -17.6320804879       -8.6258999604        0.7679218118
 H       -16.0446465710       -8.5844960043        1.4664106322
 H       -19.5119402535       -4.2809527921        1.9059226995
 H       -19.4297663613       -5.5672837508        0.7116323247
 H       -19.7317566986       -2.6399859626        0.2148318045
 H       -20.5580347310       -4.0122638486       -0.5153523562
 H       -16.5375445202       -1.1399227080       -3.7705148215
 H       -15.9010874943       -2.2808351816       -2.7439492871
 H       -16.2028491067        0.2899482249       -1.3999505914
 H       -15.0837562594        0.4680347697       -2.8514339942
 H       -10.2925210230        0.3114159966       -2.0516571032
 H       -10.9402508178        1.6782213912       -2.9433221014
 H       -10.8241104114       -0.0317767276       -5.1222632330
 H        -9.7502925995       -0.8755451189       -4.0757430421
 H        -7.8353694914       -1.0989910311       -8.2309736723
 H        -6.9469893858        0.3231930551       -8.3561758859
 H        -8.3980341543        1.1878903538      -10.2019893067
 H        -9.7043225062        0.2238424655       -9.8887405431
 H        -5.8166888416        0.4062823553      -13.8787938653
 H        -5.5564588305        0.8111767149      -12.2889919669
 H        -6.0623013133        3.3675810159      -13.0909205033
 H        -5.8788142318        2.5173186850      -14.6889070042
 H        -1.1180297168        0.3082693394      -11.1356566151
 H        -1.4806355602        1.0619306632      -12.7965430558
 H        -2.3190450407       -1.0585799472      -13.5460821089
 H        -2.7190055701       -1.5942391769      -11.8777152373
 H         1.9409021843       -3.7098754295      -11.1841762858
 H         2.6724593163       -2.6671098743      -12.5355343097
 H         3.3942038814       -4.9873669694      -13.6834241330
 H         2.8525626030       -5.7642722543      -12.3823013048
 H         8.2564609468       -4.2385445776      -14.3632675472
 H         8.8694050796       -4.9384099927      -12.7749949601
 H         8.5427737746       -2.8385411884      -11.6699278911
 H         7.1773554550       -2.3665825434      -12.7036989933
 H         8.4888720325        1.2453809052      -14.2380219646
 H         8.7480716908        2.4506296793      -12.8818345946
 H         6.4552555480        2.7026786536      -13.4684896926
 H         6.3811885550        1.8182758532      -12.0310372019
 H         2.7889215263       -1.8126298140      -14.4286314757
 H         4.3843191739       -1.8304761804      -14.9192158166
 H         2.2255093864       -0.7679456925      -16.8281174786
 H         2.4324205763       -2.4823062771      -16.5902336431
 H         5.8521256102        0.0140934989      -19.0329201566
 H         5.9347404993        0.1581962674      -20.8013913338
 H         8.0547808275       -0.0738106319      -19.9905973906
 H         7.6958662225       -1.5915453943      -20.8891234330
 H         6.4309947224       -5.3831460319      -19.9024614924
 H         6.3228343841       -6.2514361678      -18.4347045003
 H         7.9837483379       -6.0496965135      -19.4005714000
 H         9.5089274788       -4.6040582459      -20.5320996933
 H         9.5591581772       -2.8240401220      -20.7227079798
 H         8.0897693883       -3.7242773761      -20.9637316125
 H        10.6792829296       -3.7364765476      -18.6233365170
 H         9.7071916977       -3.9341383741      -17.0848229353
 H        10.2841754897       -2.3075565338      -17.9165620476
 H         1.8651302504       -2.3915977405      -20.2715217888
 H         1.6642301924       -2.6476353571      -18.5491790950
 H         2.9856692004       -3.4840910406      -19.5031742618
 H         2.3403456255        0.1164523900      -18.4318904705
 H         2.4212455411        0.1456644841      -20.2018993639
 H         3.6784398291        0.8253348463      -19.3377978296
 H         4.3689419869       -1.5143361731      -12.4972205581
 H         3.0257911501       -0.6659945587      -11.8711851987
 H         4.4834797004       -0.1254505476      -11.2771646953
 H         4.0897746052        1.9814933314      -11.6723147514
 H         2.5566774665        1.9546154491      -12.4940771331
 H         4.1110992093        2.8513719737      -13.1528637096
 H         9.8952215857       -1.5342574328      -10.9659584069
 H        11.0243069027       -0.0522454651      -10.8904664248
 H        11.5568632714       -1.5745840238      -11.7838257493
 H        10.3877304195        0.1665132573      -14.6666526020
 H        11.8042503414       -0.3882128203      -13.9049247459
 H        11.2128533455        1.1266607519      -13.3686134164
 H         6.3702921886       -6.1146446663      -10.1065058275
 H         6.9386862399       -4.5273252668      -10.4094866891
 H         7.7678762088       -5.8891014782      -11.1062009106
 H         5.4118996059       -7.4902353819      -11.9553036326
 H         6.6463396414       -7.1677822246      -13.1980903034
 H         4.9743212958       -6.9105851006      -13.6164051753
 H        -0.5465237431       -4.3873511667      -11.1095579557
 H        -1.2771636435       -5.3750096778      -12.3937145304
 H        -2.1620602564       -4.0600516070      -11.6982451906
 H        -1.1549335863       -4.2035221023      -14.8902379889
 H        -1.0740762526       -2.5291022947      -14.9519974140
 H        -2.4577542840       -3.1866110267      -14.2130157587
 H        -1.5563863858        2.8699165713      -10.9936732221
 H        -2.2352982184        4.3594067379      -11.6229294832
 H        -1.6171117362        3.3456429037      -12.8137085412
 H        -4.8510417324        2.4846233221      -10.0260572840
 H        -5.1401657649        3.9604824614      -11.1199238651
 H        -3.7053002672        3.8251266688      -10.0988887336
 H        -6.2832232762       -1.6795132611      -13.3204809639
 H        -7.7630103398       -2.0615579581      -14.0873719453
 H        -7.4369298556       -2.7512983941      -12.5190832783
 H       -10.1874907809       -1.3983529739      -12.0266744285
 H        -9.8046334194       -1.0066430889      -13.6703600150
 H       -10.1375532328        0.2799913870      -12.5999795621
 H        -6.2332325660        1.9286108695       -6.4791950988
 H        -7.0488025920        2.6802385708       -5.2164166210
 H        -7.8654967750        2.7564825147       -6.7936725267
 H        -6.5513190199       -0.1710863937       -4.5313634439
 H        -6.2292937911       -0.4047284512       -6.1291891517
 H        -7.6152019045       -1.2145638385       -5.4202444893
 H       -13.7043354741        1.6357503975       -0.0382506552
 H       -13.5235209114        2.2891818146       -1.6954541988
 H       -12.0594049988        2.0072258560       -0.6879453910
 H       -11.1666224080        0.1098522293       -0.0979007678
 H       -11.6029833780       -1.5900815457       -0.5871963722
 H       -12.3685229064       -0.6603176930        0.6809838915
 H       -19.6993439770       -3.5023575971       -4.1285474439
 H       -17.8794131795       -3.3036931620       -3.8899124696
 H       -18.8885685759       -1.9837099860       -4.4474553945
 H       -20.0647472836       -0.7315745821       -1.5359035084
 H       -21.0907568501       -2.2220319551       -1.5957455610
 H       -20.9081703443       -1.2472067420       -3.0154825854
 H       -18.5256104339       -6.6174299058        2.5890474572
 H       -17.3269125139       -5.7186559726        3.6388609488
 H       -17.2111606990       -7.4463362495        3.1541640180
 H       -14.7606995572       -6.3467510817        2.3808031407
 H       -15.4240295206       -4.8377191807        3.0422173421
 H       -14.7443524586       -4.8716940408        1.3189264116
 Na      -15.5206836550       -3.8116138071       -1.0481559972
 Na        6.7541903866       -2.2777178708      -15.7695123883
