232

 C       -16.7134388563       -8.1432282918        0.4974535391
 C       -16.2978548648       -6.6723012042        0.4265702021
 O       -15.7498031151       -6.1085847169       -0.5414140356
 C       -16.5691385325       -5.7906567281        1.6651058633
 C       -17.4218103697       -4.5172668879        1.2770405000
 O       -16.8621477657       -3.4342005446        0.9946662585
 C       -18.9185467714       -4.6712056093        1.0883902649
 C       -19.5688022844       -3.7164491780        0.0216943446
 C       -18.8621162800       -3.6125668686       -1.2993967123
 O       -17.9955692981       -4.4217458198       -1.5413838047
 C       -19.0251075845       -2.4049945732       -2.1940777147
 C       -17.8120522015       -1.3552773293       -1.6767348644
 O       -17.9518116866       -0.7996252091       -0.6510544483
 C       -16.6648643722       -1.1598945664       -2.6591444140
 C       -15.4255129680       -0.2037278400       -2.3531462558
 C       -14.2397220756       -0.7164129032       -1.5312022024
 O       -14.3052347421       -1.7706632130       -0.9698952296
 C       -12.9285415843        0.0886875678       -1.4177703578
 C       -12.3002329824        0.1403140581       -2.8689553230
 O       -12.9272616082       -0.3179230833       -3.7877627173
 C       -10.8822160129        0.6682141181       -3.0248666662
 C       -10.0736775984        0.1173609173       -4.1814215475
 C        -8.9879849571        1.1164389025       -4.6106370392
 O        -8.7425563875        2.0531766261       -3.8891991521
 C        -8.0770734519        0.8821933923       -5.8015906176
 C        -8.8870880800        0.4836988986       -7.1249702910
 O       -10.1114620077        0.6968079400       -7.2147824181
 C        -8.0705728701       -0.1061386948       -8.3516489189
 C        -8.6095682389        0.1439963755       -9.7880439106
 C        -7.9960708092       -0.7204475640      -10.8373794158
 O        -7.1699982660       -1.5752984410      -10.4518880720
 C        -8.2792159228       -0.5926762717      -12.3688402649
 C        -7.6968794467        0.7984368862      -12.8672578013
 O        -8.4553408516        1.7031072644      -13.2392947425
 C        -6.1510661750        0.8843053057      -12.8562161097
 C        -5.6575510516        2.3158138684      -13.2661439748
 C        -4.1253193440        2.5408051403      -13.1854351455
 O        -3.3967761040        2.7199565873      -14.2034180540
 C        -3.4758687765        2.6620983593      -11.7899398754
 C        -3.0152467763        1.1316224326      -11.5348897826
 O        -3.7367142726        0.4092293677      -10.8514121540
 C        -1.7917453287        0.4929331439      -12.2401089166
 C        -2.0465467443       -0.9614018065      -12.4924923398
 C        -0.5631643740       -1.7693104234      -12.4040884461
 O         0.2576775857       -1.3912583828      -11.5912202955
 C        -0.4487951037       -3.2106398341      -12.8728581466
 C         1.0283753894       -3.7179299732      -13.2672202181
 O         1.1770527656       -3.9298637772      -14.4511396418
 C         2.0340423780       -3.8386160952      -12.1188793293
 C         3.1816405468       -4.7567877611      -12.3565324688
 C         4.5277025733       -4.3816463686      -11.7152346183
 O         4.6298891069       -3.4599178228      -10.9167975276
 C         5.8450142085       -5.1781997331      -12.1809340977
 C         6.4461949712       -4.4652480725      -13.4157013780
 O         5.7911028452       -3.8594897223      -14.3351779290
 C         7.9225728411       -4.1267509531      -13.4795584523
 C         8.5355014113       -3.1086775189      -12.5133166091
 C         8.8396240682       -1.8096446525      -13.3084598331
 O         8.6983907870       -1.7668754038      -14.5369072385
 C         9.7652871747       -0.7656129316      -12.6635020481
 C         8.6644282342        0.3251403739      -12.3032638318
 O         8.1455340191        0.3112247576      -11.1864282638
 C         8.1436447432        1.2985682557      -13.4660732888
 C         6.6897458732        1.8275046820      -13.1513713082
 C         5.7224896946        0.6736987093      -13.7138428858
 O         6.2593030657       -0.1629975036      -14.3929964517
 C         4.1626320837        0.6108206551      -13.3540204124
 C         3.4541050021        0.0403410271      -14.6914989001
 O         2.6711389116        0.7542198074      -15.2229503718
 C         3.6511742398       -1.3236768302      -15.1402533937
 C         2.9973245638       -1.7346635839      -16.4564766434
 C         4.0968149629       -1.8571705221      -17.6042850171
 O         5.2434757639       -2.0927273073      -17.3595705620
 C         3.6421329683       -1.5727843474      -19.2077535222
 C         4.9733163981       -1.7540403624      -19.8826063759
 O         5.3039071602       -2.8535817305      -20.3748092419
 C         6.0437997152       -0.6079934578      -19.7539982303
 C         7.4000194654       -1.1533531847      -20.1433600853
 C         7.9300190448       -1.8602337213      -18.8179864078
 O         7.6962500485       -1.2392798224      -17.7467809196
 C         8.5596099767       -3.3050071911      -18.8860480353
 C         7.5672101593       -4.3737775991      -18.2467714588
 O         7.1526118261       -4.2243015232      -17.0568103824
 C         7.2687539374       -5.6007944599      -19.0954680900
 C         8.9225090836       -3.6667887665      -20.3558350260
 C         9.8141137563       -3.1497596437      -17.9516680289
 C         2.5903256096       -2.4790329986      -19.9086762521
 C         3.2186724246       -0.0892132508      -19.2821980520
 C         3.9959136005       -0.4370232463      -12.1484469646
 C         3.5757983458        2.0112215885      -13.0356012878
 C        10.4024224498       -1.2714427318      -11.2962773729
 C        10.8752364747       -0.2972125360      -13.6911607816
 C         6.8913275762       -5.4018572885      -11.1201052949
 C         5.4259248815       -6.5545640171      -12.5813498453
 C        -1.0078629941       -4.1993986418      -11.8612742118
 C        -1.3535596133       -3.4555940348      -14.1205252510
 C        -2.2540757153        3.5920990723      -11.9009804984
 C        -4.3843537614        3.0536562062      -10.6600365625
 C        -7.4932424598       -1.7238644713      -13.1561269235
 C        -9.7340000345       -0.7777741969      -12.7143177908
 C        -7.1562160159        2.1612112065       -6.0987031376
 C        -7.2600323512       -0.3889262791       -5.3380441140
 C       -13.3167016182        1.5460329197       -1.0943445404
 C       -11.8922845320       -0.5165303801       -0.4461338243
 C       -18.7128889696       -2.7664274667       -3.7132175154
 C       -20.3202117319       -1.5444206734       -2.1870361259
 C       -17.2932128500       -6.5637817408        2.8228481388
 C       -15.2052874504       -5.2501581765        2.2041761795
 H       -16.5500798557       -8.6013602257       -0.4651486644
 H       -17.7264012485       -8.3806592555        0.8002999316
 H       -16.0152963663       -8.6059616490        1.2596896554
 H       -19.4660352493       -4.2346256871        1.9564553210
 H       -19.2548228272       -5.7021221146        1.0218439667
 H       -19.9578343365       -2.8496493431        0.5263963695
 H       -20.5665982544       -4.2006390946       -0.2797590349
 H       -16.9932862809       -0.8481605472       -3.6398249789
 H       -16.0899130113       -2.1260716527       -2.8819003474
 H       -15.8635691942        0.6089180455       -1.8397792469
 H       -15.1007454182        0.1507581314       -3.3521811461
 H       -10.3547933917        0.4135391417       -2.1397872005
 H       -10.9570514154        1.7936128754       -3.1543051015
 H       -10.6950203000       -0.0471498264       -5.0179049350
 H        -9.7811826060       -0.8923114922       -3.9850304100
 H        -7.8715625300       -1.1831605192       -8.1985360768
 H        -7.0211629626        0.2429439022       -8.3742975826
 H        -8.4242500417        1.1902966252      -10.1480192088
 H        -9.7174444652        0.1135170051       -9.7120789141
 H        -5.6324965509        0.0714161996      -13.4234638424
 H        -5.7833569907        0.7401665735      -11.7883215720
 H        -6.0503557315        3.0242723515      -12.6167443399
 H        -6.0017359601        2.5736755202      -14.2727105738
 H        -0.9605249116        0.5911521622      -11.5743629044
 H        -1.6628062473        0.9998570729      -13.2124875890
 H        -2.5757194689       -1.1087630575      -13.5066308954
 H        -2.5535423698       -1.3599877894      -11.6352064149
 H         1.5451280781       -4.0695666048      -11.2055296922
 H         2.4582117464       -2.8173151993      -12.1141281152
 H         3.4481800471       -4.7407874548      -13.4323824627
 H         2.8965126378       -5.8460375881      -12.4234556236
 H         8.1972789584       -3.9050899227      -14.4916031806
 H         8.5013901599       -5.0026824565      -13.2470262522
 H         9.5708476633       -3.5279253018      -12.2487082438
 H         7.9532052784       -2.9611712615      -11.5700919845
 H         8.2645938478        0.7541649044      -14.3896295263
 H         8.9078168431        1.9974383965      -13.3964762426
 H         6.5561449753        2.8616914692      -13.6052255683
 H         6.6295534268        1.9083388239      -12.0981516118
 H         3.4701150847       -2.0796731228      -14.3958320893
 H         4.7950396826       -1.4049125617      -15.2994103761
 H         2.3967357877       -0.8345203551      -16.7348001933
 H         2.3583380963       -2.6144950469      -16.5704403200
 H         6.1264612455       -0.2735313799      -18.7275241766
 H         5.6865314972        0.2398581847      -20.3855087456
 H         8.1596472682       -0.4074910312      -20.3826165821
 H         7.2379310164       -1.7621794182      -21.0247021567
 H         6.6292533586       -5.2949383456      -19.9674684243
 H         6.6031215609       -6.2758160279      -18.6153917675
 H         8.1593311913       -6.0687449238      -19.4493749316
 H         9.5547526232       -4.5204480400      -20.3336157661
 H         9.5702177644       -2.8123853779      -20.6324971848
 H         8.0148334787       -3.8823480035      -21.0126264009
 H        10.4875271325       -3.9821003488      -17.8524960022
 H         9.4207060873       -2.7982898050      -16.9944618536
 H        10.4915302732       -2.4703679567      -18.4249320040
 H         2.1869486326       -2.0743337661      -20.8281646505
 H         1.7190891831       -2.4993174690      -19.2385602871
 H         2.9272486477       -3.5002172142      -20.0208699228
 H         2.2327641974        0.1334771515      -18.8668454589
 H         3.3310652474        0.3056128960      -20.2954117040
 H         3.9682065002        0.5318611650      -18.6789042809
 H         4.3412785026       -1.4023172171      -12.4572478579
 H         2.9979051330       -0.6009727964      -11.6700309954
 H         4.5335798818        0.0521635862      -11.3554066728
 H         4.1893918999        2.5800204247      -12.3195211072
 H         2.5682959881        1.8806374317      -12.5773986262
 H         3.6024134626        2.5741979165      -13.9406493067
 H         9.6824771969       -0.8847673857      -10.5309519746
 H        11.4396085455       -0.9568129157      -11.3827443711
 H        10.4549315087       -2.3321717450      -11.3176588970
 H        10.4251407847       -0.1063175747      -14.6509258308
 H        11.5252489341       -1.1227385852      -13.8599342616
 H        11.4819727194        0.5348606375      -13.1993209634
 H         6.4795265476       -5.7052085248      -10.1719616564
 H         7.4585544880       -4.4756562013      -10.8175743135
 H         7.5562064136       -6.2205429887      -11.3694471460
 H         4.9869163299       -7.0980766994      -11.6655596868
 H         6.3060299934       -7.1527336109      -12.9214397337
 H         4.7710524460       -6.5654504216      -13.4339262291
 H        -0.1478476632       -4.5194409289      -11.2027742619
 H        -1.3295213203       -5.1357468321      -12.3239748563
 H        -1.8044140462       -3.9019976717      -11.1497319257
 H        -0.9808746067       -4.3338908602      -14.7180852452
 H        -1.2797244980       -2.5677700483      -14.8348532132
 H        -2.4335803190       -3.5763728547      -13.8270488371
 H        -1.4719782808        3.2372556025      -11.3256641115
 H        -2.3988894982        4.6664616995      -11.8009593263
 H        -1.9049367200        3.5380854417      -12.9150552700
 H        -5.0738141857        2.2610486908      -10.6106856518
 H        -4.9658610988        3.9911300577      -10.8425962648
 H        -3.8940579456        3.1526651972       -9.6950624750
 H        -6.4600198497       -1.8407730150      -12.8974189775
 H        -7.4965928412       -1.5698246781      -14.2212132292
 H        -8.0110626656       -2.6999741767      -13.1586306603
 H       -10.0562087094       -1.7292689362      -12.2591664405
 H        -9.8853501385       -0.9406214884      -13.7731649894
 H       -10.4173382822       -0.0479206515      -12.3671923752
 H        -6.8450456411        2.2032708963       -7.1181257605
 H        -6.1892391060        2.1428155665       -5.4846043837
 H        -7.7291105192        3.0572257900       -5.7764106460
 H        -6.7166554322       -0.2534900769       -4.4469288580
 H        -6.4247650625       -0.6493173018       -6.0638322707
 H        -7.8419672590       -1.2866150734       -5.2082250211
 H       -13.8655107457        1.6300520006       -0.1798009271
 H       -14.0787437925        1.8269624822       -1.8701021043
 H       -12.5394060778        2.2143329027       -1.0681773073
 H       -11.1862839595        0.1327536107        0.1273397274
 H       -11.1873830414       -1.2534697530       -1.0053623608
 H       -12.4780602018       -1.0988250511        0.2831709069
 H       -19.6053175702       -3.2931671848       -3.9936036970
 H       -17.8279411991       -3.3960748633       -3.7176439199
 H       -18.7289641406       -1.8928034131       -4.4551039920
 H       -20.0956626622       -0.5021167220       -1.7731184474
 H       -21.0423642501       -2.0331901344       -1.6052673047
 H       -20.7143110014       -1.5434705699       -3.1324604049
 H       -18.2482349877       -7.0166150191        2.4257437988
 H       -17.5513344836       -5.8466013959        3.6018867107
 H       -16.6680422190       -7.3980920057        3.1293662115
 H       -14.5118501004       -6.0590626019        2.4956254243
 H       -15.3218602227       -4.5448569977        3.0122101669
 H       -14.7625611275       -4.7920662244        1.3719148209
 Na      -15.6014444355       -3.7628653949       -0.9118724806
 Na        7.0240045417       -2.2864948857      -15.7060076655
