232

 C       -16.6434504608       -7.8810472244        0.1845158309
 C       -16.1647880261       -6.4603666929        0.3774017052
 O       -15.6614773483       -5.8584041757       -0.4988261520
 C       -16.4788604720       -5.6762316556        1.7558266766
 C       -17.3958533008       -4.5095855143        1.2817626117
 O       -16.9777242075       -3.4255283237        1.0368299105
 C       -18.8550063104       -4.7587165324        1.0707487961
 C       -19.4027894536       -3.5632996824        0.2040333278
 C       -18.7519461678       -3.5850194754       -1.1400691131
 O       -18.1201134568       -4.6096958306       -1.4756211784
 C       -18.9045840087       -2.4370996433       -2.0892390581
 C       -17.7521129933       -1.3375944445       -1.6716216424
 O       -17.7368212731       -0.7506854583       -0.5986722064
 C       -16.7209966589       -1.0961499672       -2.7191325367
 C       -15.5892316228       -0.1575301948       -2.2016290385
 C       -14.3509500990       -0.8162545663       -1.6026692762
 O       -14.3381281308       -2.0389106431       -1.3287649761
 C       -13.1284447805        0.0557817751       -1.5392037089
 C       -12.3717288135        0.1525337681       -3.0092946629
 O       -12.9630749589       -0.1799951527       -4.0304522252
 C       -10.9569058995        0.7604376258       -3.0247904093
 C       -10.2337996470        0.2906644987       -4.3341499005
 C        -9.0207325557        1.1884516937       -4.6372083690
 O        -8.8374613489        2.2759436715       -4.1018382579
 C        -8.0035625088        0.7518785454       -5.8424078367
 C        -8.9091588708        0.3908697127       -7.1976528588
 O       -10.0567224677        0.6593413960       -7.1993083448
 C        -8.0820739923       -0.1682033724       -8.3435984979
 C        -8.6808949358        0.0756911628       -9.7594728521
 C        -7.8734802223       -0.7028501050      -10.7848392004
 O        -6.9555012643       -1.3930851633      -10.4185282629
 C        -8.2468321549       -0.6410260583      -12.2601003327
 C        -7.5890504318        0.6778460883      -12.9004657765
 O        -8.3211738919        1.4060098599      -13.4832936577
 C        -6.1520446224        0.9846395595      -12.6549122356
 C        -5.8070925181        2.3755614092      -13.1017901596
 C        -4.2428119078        2.5669358521      -13.1252833788
 O        -3.6709102226        2.3788286125      -14.1499966396
 C        -3.4173854869        2.5756196367      -11.8239539162
 C        -2.8908847049        1.1164658354      -11.5762691199
 O        -3.5442502932        0.2872373141      -11.0016985519
 C        -1.7183674888        0.5864111900      -12.4050473332
 C        -1.7756432242       -0.9799374664      -12.5512803785
 C        -0.4950183694       -1.7198831425      -12.3167436382
 O         0.5456677624       -1.2921582786      -11.8231982791
 C        -0.4682668932       -3.2382326997      -12.7361753927
 C         0.9030144542       -3.5908218840      -13.0816829173
 O         1.3772971743       -3.3798162204      -14.1772930893
 C         1.9318235261       -3.6584326965      -11.8653397866
 C         3.1228919094       -4.4362042444      -12.4016971980
 C         4.4269386765       -4.1763514831      -11.7452970211
 O         4.5584982429       -3.2911743930      -10.9258880600
 C         5.6995707781       -4.9829197019      -12.2364604629
 C         6.3081649733       -4.4269545854      -13.5149166082
 O         5.5853066370       -3.9506445489      -14.3262312410
 C         7.8771021009       -4.4434550287      -13.6184472957
 C         8.6955532787       -3.4001571121      -12.7701862570
 C         8.9455503693       -2.0226332225      -13.2948451561
 O         8.5468857199       -1.6443811326      -14.3613600321
 C         9.7780973455       -0.8592247744      -12.4684722071
 C         8.6175162251        0.1916522962      -12.2552170859
 O         8.0064083592        0.2922412767      -11.2107887706
 C         8.2308514883        1.2687495731      -13.3978268119
 C         6.7386381503        1.5384988968      -13.2820938017
 C         5.7982245098        0.5390494199      -13.8897520769
 O         6.2470424683       -0.4088085363      -14.5762134241
 C         4.2569631678        0.6123000169      -13.6066268975
 C         3.4238119234       -0.0423480692      -14.7764242032
 O         2.8045441501        0.7653260333      -15.4976365897
 C         3.4564028478       -1.5484455220      -15.0821764090
 C         2.8334603255       -1.7876367885      -16.4398603152
 C         3.9638292193       -1.9050690870      -17.5861028061
 O         5.1534701640       -2.2062403940      -17.4281584002
 C         3.6691950178       -1.4802225915      -19.0530950730
 C         5.1503135307       -1.8089757969      -19.8106211982
 O         5.4501522541       -2.9056874938      -20.1193298723
 C         6.0496748787       -0.6197830794      -20.1996506196
 C         7.5538844696       -1.0854868704      -20.1118410679
 C         7.9656494703       -1.7700426686      -18.8146088988
 O         7.7400450937       -1.3313526362      -17.7393244506
 C         8.6957728310       -3.2949850177      -18.8926750712
 C         7.6920480368       -4.4293102006      -18.2748737425
 O         7.2449204329       -4.2946223379      -17.1981649514
 C         7.3165292019       -5.5914294334      -19.0965341526
 C         9.1742972378       -3.7065869614      -20.3065027634
 C         9.8882784966       -3.1971944780      -17.8568862119
 C         2.6581097544       -2.5265889607      -19.7691478343
 C         3.1519653169       -0.0753064604      -19.1774667902
 C         4.1265330878       -0.1246830036      -12.2480427324
 C         3.7534193997        2.0509713124      -13.2939366756
 C        10.4088999905       -1.2236306273      -11.0426958121
 C        10.8598447492       -0.3229888827      -13.4595025060
 C         6.4694274298       -5.1704594833      -10.9714469023
 C         5.2505062508       -6.3900142980      -12.8808222281
 C        -1.1195699532       -4.1259877846      -11.5771360141
 C        -1.3767675717       -3.4887415025      -13.9607589657
 C        -2.2437613688        3.6372279129      -11.8307044998
 C        -4.2764340158        2.9276379296      -10.5436360787
 C        -7.7014347171       -1.8198030205      -13.0200211680
 C        -9.7992832199       -0.4923237639      -12.5060178053
 C        -7.0120234992        1.9628741428       -6.1396685398
 C        -7.1729614497       -0.4923817288       -5.5694753477
 C       -13.4109174499        1.5099170036       -1.1193391084
 C       -12.2285060461       -0.4594247464       -0.3834615713
 C       -18.7105291482       -2.9460443789       -3.5103269463
 C       -20.2251580431       -1.7944479758       -1.9006394648
 C       -17.1351511108       -6.5386711251        2.8366036101
 C       -15.1543996530       -5.1031290830        2.3741626100
 H       -16.4641028444       -8.2491661302       -0.8351793375
 H       -17.7444966639       -7.7603065552        0.3079745017
 H       -16.4223393938       -8.5377495843        0.9876318888
 H       -19.5132153335       -4.8593074895        1.8967164493
 H       -18.9648695496       -5.6564784138        0.4336166288
 H       -19.1664918474       -2.5701865387        0.6752672255
 H       -20.4734312758       -3.4686995560        0.1825180150
 H       -17.1017431498       -0.6429803089       -3.6495713838
 H       -16.1930547100       -1.9363666152       -3.0451786493
 H       -16.0717083491        0.5306272847       -1.4350525893
 H       -15.3499600682        0.4494606061       -3.0705472020
 H       -10.4143191596        0.5172483923       -2.0637264161
 H       -11.1583411423        1.8036615149       -3.1473294304
 H       -11.0200271546        0.2233989460       -5.1422397259
 H        -9.9593665502       -0.7838283214       -4.3030865748
 H        -7.7668896937       -1.1625377652       -8.1276576170
 H        -7.1268135177        0.3310388590       -8.3745357995
 H        -8.8919331071        1.1090380468      -10.0287931683
 H        -9.6753404717       -0.3828958803       -9.7007583294
 H        -5.5067599245        0.2186051267      -13.0481431023
 H        -5.9793963922        0.9336720065      -11.6029184329
 H        -6.5005999561        2.9769172035      -12.3643419386
 H        -6.1284407396        2.5816792566      -14.1257698440
 H        -0.7916168542        0.9077939774      -11.8684063146
 H        -1.7920828664        1.0364654217      -13.3824436793
 H        -1.9994107196       -1.2485396392      -13.5543202584
 H        -2.4412676772       -1.4222720851      -11.7475389214
 H         1.4968160446       -4.1512844847      -10.9497491372
 H         2.3447794484       -2.6717215099      -11.7231960140
 H         3.2289268429       -4.2672535601      -13.4688135797
 H         2.9196652601       -5.4499851952      -12.5567642780
 H         8.2190603781       -4.1669716973      -14.6496051786
 H         8.3043913314       -5.4437528271      -13.4191323087
 H         9.7071551164       -3.7154762365      -12.7741309421
 H         8.4370825547       -3.3047597084      -11.7215294907
 H         8.5361154149        0.8663509141      -14.4007675035
 H         8.8633623214        2.2158960783      -13.1804061641
 H         6.5583685591        2.4956727974      -13.8033608013
 H         6.4515544248        1.6453387256      -12.1712091178
 H         2.8157592998       -2.1327915569      -14.3456702110
 H         4.3624038712       -2.0461835389      -15.0679242004
 H         2.0275527891       -1.1017863467      -16.6939458735
 H         2.4362614800       -2.8245601160      -16.4917846879
 H         5.9257930489        0.2822651882      -19.5949186324
 H         5.7625631224       -0.4900836363      -21.2322036058
 H         8.2969660916       -0.3025549932      -20.4088648839
 H         7.6451191296       -1.8397340848      -20.9431647259
 H         6.7418248587       -5.3293221931      -19.9485860388
 H         6.6529396731       -6.2571562000      -18.5439336279
 H         8.2359175325       -6.0771161132      -19.3966624782
 H         9.7544307401       -4.6339969075      -20.3267093281
 H         9.8205170924       -2.9235593442      -20.7000488054
 H         8.2732408016       -3.7891267247      -20.8497955143
 H         9.9768437273       -4.1092824777      -17.2834409608
 H         9.8652325040       -2.2867461530      -17.2682695375
 H        10.8521585466       -3.2100777759      -18.3842232845
 H         2.5474564296       -2.3255698635      -20.8286166721
 H         1.6587020031       -2.4100139526      -19.4115327542
 H         2.9206128086       -3.5619528113      -19.5170744981
 H         2.1240508740       -0.0368623044      -19.5962105571
 H         3.7492444084        0.6379100650      -19.7643086545
 H         3.0511633856        0.3300090480      -18.2192428999
 H         4.6186908177       -1.1220036115      -12.2660420114
 H         3.0973115599       -0.3803895017      -12.1411997306
 H         4.3118590496        0.5244811864      -11.3877241046
 H         4.3944024041        2.5337609155      -12.5604648829
 H         2.7963498176        2.0509006056      -12.8883558630
 H         3.8076020414        2.6781006676      -14.1923129850
 H         9.6384120951       -1.1191169120      -10.2987573237
 H        11.2021065940       -0.5793461382      -11.0760245720
 H        10.8230096046       -2.2217672050      -10.9822736887
 H        10.3859609410        0.1025614187      -14.3914956150
 H        11.5585190300       -1.1766459073      -13.8064739523
 H        11.3968228655        0.3921978522      -12.9208041291
 H         6.0863605672       -5.9988227202      -10.3508202828
 H         6.3455851479       -4.3097695555      -10.3795691876
 H         7.5388435455       -5.4645788128      -11.0639846155
 H         4.6358505759       -6.9212418863      -12.2611909175
 H         6.0979075800       -7.0094380837      -13.0273154736
 H         4.7768603533       -6.2228781031      -13.8590212226
 H        -1.0085424676       -3.9019916857      -10.5614800943
 H        -0.8472771774       -5.1544938124      -11.7260539426
 H        -2.1792243654       -4.1385507081      -11.7144525309
 H        -1.4373511726       -4.5437712614      -14.1424047202
 H        -1.0239180727       -2.9996730056      -14.8441143959
 H        -2.3985190408       -3.2404511447      -13.7442151260
 H        -1.7791484807        3.8696071136      -10.8052953745
 H        -2.6529171582        4.5156175095      -12.3112965850
 H        -1.3368736115        3.4301838207      -12.4503929769
 H        -5.1772220913        2.3053631628      -10.4789721226
 H        -4.6034308838        3.9437876774      -10.5015437942
 H        -3.6580488846        2.8516932950       -9.6353971507
 H        -7.2734938013       -2.5060327700      -12.2572440258
 H        -6.9301497773       -1.7713306618      -13.8152824135
 H        -8.4612985943       -2.2878854982      -13.6177425442
 H       -10.3650522666       -1.4257341050      -12.4959786317
 H       -10.0651264614       -0.0209974859      -13.4663082579
 H       -10.2404122579        0.0595272225      -11.6196231690
 H        -7.2300486526        2.2654378774       -7.2045957810
 H        -6.0109910735        1.6369126483       -6.0848312341
 H        -7.0583978465        2.7838310148       -5.4404270774
 H        -6.4630843000       -0.4712859138       -4.6814167138
 H        -6.5437474329       -0.7084263117       -6.3756759762
 H        -7.7577487381       -1.4369876569       -5.4235066128
 H       -13.9846251481        1.6381547059       -0.1887094764
 H       -14.0094462289        1.9269126523       -1.8663901942
 H       -12.3721093632        2.0116377326       -0.9609567248
 H       -11.2743253794        0.0789532874       -0.2785823433
 H       -11.8093001832       -1.3574147387       -0.6719786559
 H       -12.8170727668       -0.5934285766        0.5548809796
 H       -19.5610093253       -3.5851975720       -3.8284372693
 H       -17.7350799400       -3.3927773408       -3.6387416651
 H       -18.8531975048       -2.1056918152       -4.0524493374
 H       -20.1126306662       -1.0927211996       -1.1087764166
 H       -21.0120164273       -2.5475507955       -1.5522710017
 H       -20.5428454775       -1.3539846708       -2.9075455836
 H       -18.0532849627       -6.9713533912        2.4721338751
 H       -17.5142106137       -5.8954824044        3.6939317823
 H       -16.3848805713       -7.3105827091        3.0961374685
 H       -14.5569072019       -5.8481588000        2.8150866288
 H       -15.4251578927       -4.3421725205        3.0988293504
 H       -14.5173284337       -4.6210464882        1.5886541916
 Na      -15.7567342262       -3.7375363556       -0.7790584113
 Na        6.8057378706       -2.4322391708      -15.9074727469
