232

 C       -16.6050082714       -7.8099628629        0.0994534738
 C       -16.1735835346       -6.3909542837        0.4156707487
 O       -15.4756770541       -5.8107010316       -0.4202792165
 C       -16.4538473086       -5.6938183783        1.8096558639
 C       -17.3842446603       -4.4828123589        1.3442770094
 O       -16.8655359854       -3.3877403606        1.2127928339
 C       -18.9192990587       -4.7589817943        1.1352996174
 C       -19.3759614303       -3.5758389784        0.3236733225
 C       -18.7022972117       -3.6858278752       -1.0725733595
 O       -18.0401825679       -4.6819396229       -1.3392816977
 C       -18.8963169934       -2.4101304538       -2.0591737723
 C       -17.6706223963       -1.4522833199       -1.6900770833
 O       -17.7303135079       -0.8336611610       -0.6561095610
 C       -16.7767864027       -1.0580154372       -2.8197668846
 C       -15.6439514879       -0.1271621787       -2.1306367714
 C       -14.3416726273       -0.8201475084       -1.7482683483
 O       -14.2805050408       -2.0002861039       -1.4820833817
 C       -13.1051389791        0.0929304736       -1.5741519047
 C       -12.4452406833        0.1636194293       -3.0041230563
 O       -13.0549317257       -0.1595664688       -4.0126185801
 C       -10.9765929965        0.7377761375       -3.0774406903
 C       -10.1871307231        0.3868201690       -4.4018900634
 C        -8.9872072506        1.2004713830       -4.7510665737
 O        -8.8446979251        2.2994576373       -4.2564278518
 C        -8.0535267360        0.7141050041       -5.9116022866
 C        -8.8295918405        0.4943919778       -7.1755617016
 O       -10.0474040095        0.6162182240       -7.2608769786
 C        -8.0795193159       -0.1206930535       -8.3162996029
 C        -8.7473845973       -0.0300278622       -9.6740818870
 C        -7.8824044371       -0.6945097640      -10.7218792591
 O        -6.8321457606       -1.3434363861      -10.4530133652
 C        -8.2661389673       -0.6247195903      -12.2449640372
 C        -7.6457242083        0.6728703160      -12.9411003793
 O        -8.2851236973        1.4174815621      -13.6763439967
 C        -6.1916817682        0.9753768479      -12.5544443368
 C        -5.8187828166        2.3660832401      -13.0359359463
 C        -4.2946978084        2.4257626774      -13.0429990895
 O        -3.7371779581        2.2787899405      -14.1745640201
 C        -3.3968241620        2.5698342643      -11.7216412388
 C        -2.9417796498        1.1266979396      -11.6617166878
 O        -3.5077085157        0.3142776094      -10.9253176408
 C        -1.5577379710        0.7163897912      -12.4574841121
 C        -1.7515664102       -0.8094107474      -12.6337361795
 C        -0.5521456020       -1.5818822279      -12.4324630504
 O         0.5378958162       -1.1715258040      -11.9124107141
 C        -0.6086949265       -3.1842270239      -12.6752722910
 C         0.9496458450       -3.3437932184      -12.8775972758
 O         1.2861609609       -3.3064432644      -14.0215685299
 C         1.9341108523       -3.6618761340      -11.7691767509
 C         3.0930852899       -4.3791517031      -12.4865633841
 C         4.3669122612       -4.1113023433      -11.8348974314
 O         4.5276962843       -3.2076681550      -11.0041238269
 C         5.6015958209       -5.0366909611      -12.1739546020
 C         6.4098716799       -4.2100881036      -13.3845803336
 O         5.7597605916       -3.7901468559      -14.3589482158
 C         7.8659997305       -4.4277620860      -13.6530993447
 C         8.8024103909       -3.5684512104      -12.8100330029
 C         8.8938672221       -2.0133426120      -13.2626813351
 O         8.5581878873       -1.7277981209      -14.3819861665
 C         9.6918766106       -0.8242507567      -12.4269522752
 C         8.6656486557        0.1969393720      -12.1926393278
 O         7.9744056733        0.1933449543      -11.1459717991
 C         8.2518134432        1.1840899342      -13.3548265042
 C         6.7565075120        1.4977408729      -13.4052540263
 C         5.8770995289        0.4158085776      -14.0948540655
 O         6.2856433012       -0.5481074505      -14.7251485478
 C         4.2727797114        0.5548494417      -13.6809009715
 C         3.4321174000        0.0282202727      -14.8941459516
 O         2.8437945498        0.7497312387      -15.6755443806
 C         3.2781521375       -1.4261573535      -14.9936747561
 C         2.9183214402       -1.8546949915      -16.4945541991
 C         4.0168860399       -1.9483120896      -17.5618163975
 O         5.1182391864       -2.3262634444      -17.2683325162
 C         3.6641055588       -1.5150202547      -19.1330364610
 C         5.0691480329       -1.7205631237      -19.8569591179
 O         5.4817645486       -2.8570524216      -19.9309869353
 C         6.0874558888       -0.6253134964      -20.3219054243
 C         7.5487009032       -1.1886880283      -20.1352042785
 C         7.9492441820       -1.9011974855      -18.8252144932
 O         7.7944721981       -1.2892249823      -17.7650574327
 C         8.7332511825       -3.2786017892      -18.8810168186
 C         7.7583978731       -4.3756590510      -18.3908707072
 O         7.3970991405       -4.2570136629      -17.2031829576
 C         7.3176559496       -5.6376182197      -19.1837358581
 C         9.2947296058       -3.6568596943      -20.2736248430
 C         9.9253258825       -3.2821436357      -17.8051393866
 C         2.6077029795       -2.5202248894      -19.5864964567
 C         3.1614535304       -0.0923969446      -19.2765639302
 C         4.0482865465       -0.1505499229      -12.2856700055
 C         3.8733007069        2.0978466983      -13.4827627855
 C        10.3095152324       -1.3203354542      -11.1011856811
 C        10.8703146936       -0.3099659588      -13.2855649092
 C         6.4164181993       -5.2651200503      -10.9093430797
 C         5.2393488697       -6.4076368919      -12.8167511241
 C        -1.1292636839       -4.0015542663      -11.4527612241
 C        -1.4433100163       -3.6401648376      -13.9819881501
 C        -2.2180307425        3.4840624093      -11.8811946556
 C        -4.2136761228        2.8666124053      -10.3865609697
 C        -7.8101306371       -1.9515816782      -12.9683378654
 C        -9.7784191169       -0.3817877491      -12.3311410973
 C        -7.0118338286        1.8890945935       -6.1935403980
 C        -7.2658534976       -0.5625002406       -5.4435302312
 C       -13.4790805781        1.5399763392       -1.1640795423
 C       -12.2938925884       -0.5710560853       -0.4042629047
 C       -18.8423254810       -2.9729692846       -3.5144607736
 C       -20.3213772017       -1.7454048124       -1.8314131634
 C       -17.1285120631       -6.6054851008        2.8239572146
 C       -15.1353612484       -5.0419335514        2.3138998670
 H       -16.1846370780       -8.1466203984       -0.8105742515
 H       -17.6964003534       -7.7758956137       -0.0296972607
 H       -16.5236450220       -8.4647543506        0.9912846114
 H       -19.5001482803       -4.7599075540        2.0856496295
 H       -19.2536145187       -5.6430156912        0.5164712055
 H       -19.1027278652       -2.6518513079        0.7687162543
 H       -20.4689757739       -3.3959575303        0.2792263208
 H       -17.2072738870       -0.5986619704       -3.6715515205
 H       -16.1935698741       -1.9024467050       -3.1955302811
 H       -16.1250082179        0.3142410620       -1.2042978635
 H       -15.4704813057        0.6974193278       -2.8203873462
 H       -10.4816605395        0.2426291279       -2.2453405999
 H       -11.0369935103        1.8007750943       -2.9263334259
 H       -10.9361417797        0.3708512167       -5.2647835901
 H        -9.9779511198       -0.6976993600       -4.3867091640
 H        -7.7811389992       -1.1272700254       -7.9547501455
 H        -7.0865106619        0.3425664168       -8.5629145910
 H        -9.0229839025        0.9538709117       -9.9679169469
 H        -9.6614819935       -0.5990632991       -9.6198307816
 H        -5.5379890954        0.2683841945      -13.0546902835
 H        -6.0025360122        0.7999618312      -11.5203492828
 H        -6.4018542994        3.0508325422      -12.3783195136
 H        -6.1618262335        2.4845568341      -14.0505311007
 H        -0.7370395384        0.9016010333      -11.7338431162
 H        -1.4165248419        1.2534491490      -13.4211738706
 H        -2.1626243789       -1.1547600323      -13.5707313381
 H        -2.2661049091       -1.1563123055      -11.7121832738
 H         1.3220152446       -4.3318167790      -11.1398301029
 H         2.3788290548       -2.7763760704      -11.2811743382
 H         3.1032793700       -4.1508907094      -13.5424622993
 H         2.9419858498       -5.4252986761      -12.6681934669
 H         8.1937365410       -4.2085979225      -14.7179021860
 H         7.9752384123       -5.5190357116      -13.4682494957
 H         9.8168838576       -3.8672460024      -12.7529339211
 H         8.4675969484       -3.5085477905      -11.7740389651
 H         8.6216665304        0.7074553514      -14.3323056007
 H         8.8156150205        2.1366145234      -13.2327396984
 H         6.6728409689        2.5075672443      -13.7752258014
 H         6.4173900005        1.4510961358      -12.4457756837
 H         2.3963044236       -1.7503773552      -14.4335182220
 H         4.1149602884       -2.0440294876      -14.6361834567
 H         2.1865920890       -1.2024856909      -16.8887531234
 H         2.4848537969       -2.8718968249      -16.5271142030
 H         6.1293905151        0.2581900558      -19.6491198627
 H         5.8701420231       -0.4028207580      -21.3964107618
 H         8.1369993922       -0.2899863009      -20.1849195419
 H         7.9048473170       -1.7416961114      -21.0460027900
 H         6.6747902858       -5.3512151457      -20.1044942917
 H         6.6831305201       -6.3302070092      -18.6237650142
 H         8.2606364329       -6.1091863778      -19.4847258781
 H         9.8285633182       -4.4903437333      -20.1550145828
 H        10.0109602079       -2.8927790623      -20.6418715870
 H         8.4489287203       -3.7603831954      -20.9471235953
 H         9.9258038017       -4.2774672817      -17.2820969637
 H         9.8489256680       -2.3760449188      -17.1432770854
 H        10.9499582345       -3.2011487581      -18.2295625728
 H         2.4139845360       -2.3683766435      -20.6658238739
 H         1.6611200536       -2.3265769369      -19.1519084928
 H         2.8246687804       -3.5814489668      -19.3112525005
 H         2.2537261774        0.0815912327      -19.8449579467
 H         3.8500890715        0.6414345619      -19.6497694692
 H         2.9166267196        0.1798794160      -18.2744398874
 H         4.4091129366       -1.1792289498      -12.3433454979
 H         2.9870623468       -0.2517108370      -12.0975777195
 H         4.4569308833        0.4114204702      -11.4626272167
 H         4.3772539013        2.5550490493      -12.5727336009
 H         2.8080214077        2.2395707043      -13.3239284257
 H         4.1400091802        2.7241227016      -14.3388422301
 H         9.4339618793       -1.7285928254      -10.4650015024
 H        10.8414553991       -0.4221445660      -10.8151116698
 H        11.0513306871       -2.1085539547      -11.2526507443
 H        10.6194032953       -0.0602524044      -14.3118870142
 H        11.6575643051       -1.0385501433      -13.2566020451
 H        11.1591789735        0.5803571528      -12.7397074140
 H         6.2530929219       -6.1276688612      -10.3709491719
 H         6.3522826508       -4.4278778652      -10.2257994745
 H         7.4585539718       -5.4107344094      -11.2224070158
 H         4.6767984536       -7.1055526567      -12.1752265714
 H         6.0909769602       -6.9855777526      -13.1268648949
 H         4.6638447330       -6.1267274020      -13.6617156821
 H        -1.0710886522       -3.5416608124      -10.4671698854
 H        -0.5907939309       -4.9144434725      -11.3935494854
 H        -2.1530153230       -4.3432285568      -11.4676637529
 H        -1.4554999990       -4.6713618398      -14.0753973747
 H        -1.0015605716       -3.1580800774      -14.8341532965
 H        -2.4689718671       -3.4365251668      -13.9049044821
 H        -1.7156631042        3.8605946897      -10.9637199349
 H        -2.5525153891        4.3278244597      -12.5746399588
 H        -1.3657918214        3.0548499291      -12.3792589344
 H        -4.8845497132        2.0876153243      -10.2100626773
 H        -4.7873979058        3.8319749230      -10.2809707427
 H        -3.4573897384        2.9776836477       -9.5556495430
 H        -7.6505292139       -2.7853475762      -12.2465881615
 H        -6.7983473482       -1.8538595115      -13.4490910688
 H        -8.3398653169       -2.1834936704      -13.8388897766
 H       -10.3590248978       -1.2699160768      -12.0473517534
 H       -10.1880046399       -0.0745802041      -13.2755183824
 H       -10.0397191648        0.2945466955      -11.5199827554
 H        -7.3610882459        2.4975776410       -7.0155176457
 H        -6.0099418702        1.4969360315       -6.3535134433
 H        -6.8439534706        2.4566338854       -5.2831393120
 H        -6.6918827962       -0.4072555332       -4.5481589392
 H        -6.5443046300       -0.8185501605       -6.2003986958
 H        -7.8037708670       -1.5105665192       -5.2790721838
 H       -14.2647306948        1.6610605803       -0.3718896514
 H       -13.9635833586        1.9294938966       -2.0891750149
 H       -12.5677981901        2.0629537220       -0.8383191870
 H       -11.2489176731       -0.3850691303       -0.4873247824
 H       -12.2104486256       -1.6147070177       -0.5402042180
 H       -12.7744194258       -0.3575099305        0.5111591531
 H       -19.6118859511       -3.7370808805       -3.6745056588
 H       -17.8642697060       -3.3270876376       -3.7151274957
 H       -19.1468616491       -2.1336443789       -4.1458555384
 H       -20.5233181373       -1.5665044926       -0.7028982413
 H       -21.0957420397       -2.4051005358       -2.2002721782
 H       -20.2793936838       -0.8551755619       -2.4208762918
 H       -18.1594517157       -6.7545789434        2.5934459691
 H       -17.2514375630       -5.9589720531        3.7484109615
 H       -16.4808449903       -7.4100347069        3.0084951872
 H       -14.3524789818       -5.7149237058        2.6973823068
 H       -15.4181927942       -4.2840225701        3.0827195731
 H       -14.6663877203       -4.4789169555        1.4807177117
 Na      -15.8050066674       -3.5721913784       -0.8412350145
 Na        6.6494054818       -2.4974391670      -15.9236518788
