232

 C       -16.6007183267       -7.7570711303        0.0816688466
 C       -16.0281352080       -6.3659910610        0.4471546181
 O       -15.2807976077       -5.7587612343       -0.3865999935
 C       -16.4298520352       -5.6641654432        1.8281742777
 C       -17.3835383394       -4.4944454854        1.5897917024
 O       -16.8599300400       -3.3751760588        1.3414240319
 C       -18.8284871273       -4.6390932716        1.4011831183
 C       -19.4319468762       -3.6515483458        0.3826813990
 C       -18.7972577169       -3.6900396739       -1.0297543563
 O       -17.9491270063       -4.5036915709       -1.3098823301
 C       -18.9886917891       -2.4885909202       -2.0690965346
 C       -17.8617692147       -1.4479150250       -1.7857812968
 O       -17.8029827290       -1.0849148094       -0.6268425901
 C       -16.7403601127       -1.0531007108       -2.8275367703
 C       -15.6406174660       -0.0508636102       -2.2191090845
 C       -14.4074735761       -0.7704478193       -1.8355953763
 O       -14.3217750181       -1.9706335229       -1.6795528536
 C       -13.0898034140        0.1065265590       -1.6340089096
 C       -12.3664491255        0.1211052498       -2.9799917528
 O       -13.0776082242       -0.0958252479       -3.9067544224
 C       -10.9121223739        0.6619189578       -3.1690226738
 C       -10.2911889414        0.3180745224       -4.4808857552
 C        -9.0518953181        1.3176815853       -4.7888485775
 O        -8.8687511638        2.3923925400       -4.2904388578
 C        -8.0421880479        0.7440492878       -5.8617783872
 C        -8.8227932985        0.3965999697       -7.1563289010
 O       -10.0384774742        0.6323330277       -7.3332886162
 C        -7.9331059973       -0.1382662840       -8.3420609195
 C        -8.7109386262       -0.1803970232       -9.6544245124
 C        -7.8521047350       -0.7705238439      -10.7459845183
 O        -6.7627067115       -1.2310982418      -10.4532378266
 C        -8.4179001352       -0.5803380268      -12.2008229075
 C        -7.7285380421        0.6418524834      -12.9099111229
 O        -8.2214293082        1.3017321149      -13.8075725591
 C        -6.2239717629        0.9337673796      -12.4950549847
 C        -5.7697846277        2.4503116708      -12.8947760058
 C        -4.2721725178        2.4420400673      -13.0347341859
 O        -3.6559030264        2.2433805140      -14.0595023820
 C        -3.3589332981        2.5822144341      -11.7135495330
 C        -2.8454203856        1.1359789393      -11.4980848165
 O        -3.4241068423        0.2760076385      -10.8866698448
 C        -1.6663428986        0.7236554368      -12.3488441075
 C        -1.8888050793       -0.7565614196      -12.7706699920
 C        -0.6307177061       -1.5308518716      -12.3515489075
 O         0.3691058120       -0.9874242075      -12.0759264829
 C        -0.6883518913       -3.1842550986      -12.5646983825
 C         0.8716342845       -3.4974278165      -12.9131158215
 O         1.2232510989       -3.2506423694      -14.0730744536
 C         1.8380363200       -3.7981809896      -11.8078145439
 C         3.0916533195       -4.4224301030      -12.4479148725
 C         4.3955017936       -4.0902581666      -11.8109721542
 O         4.5646672648       -3.1360246987      -11.1179263142
 C         5.7131900677       -4.9946018864      -12.2976230037
 C         6.4556877191       -4.2986693226      -13.3678871350
 O         5.6988038281       -3.6172230304      -14.0940020471
 C         8.0055945963       -4.3622604392      -13.5036866819
 C         8.9719754297       -3.4856909433      -12.6943452575
 C         9.1268865677       -2.0581999048      -13.3599100725
 O         8.5501106059       -1.8626283012      -14.4238306267
 C         9.6953778294       -1.0084044077      -12.4454505187
 C         8.4467248307        0.1147727644      -12.1569969677
 O         7.9430764503        0.1828783797      -11.1065829339
 C         8.2257951484        1.0355087104      -13.3632858100
 C         6.7463334196        1.4421472736      -13.4675955553
 C         5.7929536582        0.3422195229      -14.0268471670
 O         6.1906682658       -0.4445574313      -14.7947854680
 C         4.3514472661        0.5722784652      -13.8260502434
 C         3.4476592639        0.0800034027      -15.0294131798
 O         2.9877818304        0.8881708372      -15.7804976268
 C         3.2015922745       -1.4108844723      -15.1089515873
 C         2.7721931079       -1.9391492859      -16.5863373064
 C         4.0022670253       -1.8233771759      -17.5495240779
 O         4.9938633695       -2.4275667719      -17.3037779268
 C         3.7207272919       -1.4848120069      -19.0599426220
 C         5.1152479478       -1.8231106214      -19.8149672725
 O         5.4711693338       -3.0368688262      -19.8095136939
 C         6.1077890137       -0.6752928875      -20.1785017680
 C         7.5629577237       -1.1911349373      -20.2374728094
 C         8.0091061668       -1.9137089612      -18.9174615314
 O         7.8086655494       -1.3733437045      -17.8442690371
 C         8.7468828344       -3.2879242324      -18.8938904603
 C         7.8014881731       -4.3368537371      -18.3479186830
 O         7.4240718333       -4.4157900563      -17.1468178063
 C         7.3973700855       -5.5013260623      -19.2923996727
 C         9.4210930488       -3.5717271017      -20.2689481218
 C         9.8770662440       -3.2656336952      -17.8652900085
 C         2.6886376878       -2.5206381253      -19.4443282650
 C         3.1659453872       -0.0214323332      -19.2677343191
 C         3.9898010602       -0.1633647280      -12.5824868451
 C         4.0706880723        2.0988490305      -13.7156727489
 C        10.1347479998       -1.5770965058      -11.0559274360
 C        10.8953073912       -0.3446177582      -13.2106314964
 C         6.5382365460       -5.3202814926      -10.9345979626
 C         5.2269411416       -6.3454024797      -12.7714041542
 C        -1.1427379009       -3.7659242677      -11.2804239472
 C        -1.3801307138       -3.5999473797      -13.8188179220
 C        -2.2786910518        3.5893382863      -11.9873851212
 C        -4.1333729235        2.8758335178      -10.4471372968
 C        -8.0049993023       -1.8920138311      -12.9426104936
 C        -9.9652787984       -0.4443130775      -12.2876995153
 C        -7.0056204987        1.8019653784       -6.2076122084
 C        -7.4106825344       -0.5380462767       -5.2717016959
 C       -13.5141929361        1.5803067618       -1.2219927388
 C       -12.2335437044       -0.6141233367       -0.5051441688
 C       -18.9519630010       -3.0435155379       -3.5319876541
 C       -20.2817590655       -1.7103938735       -1.7739753319
 C       -17.0811196602       -6.6822695254        2.8028577303
 C       -15.1216818400       -5.0911561733        2.2864774112
 H       -15.9742751638       -8.1356462700       -0.7252501720
 H       -17.6183800053       -7.7532588803       -0.2577027380
 H       -16.6210089234       -8.4090737362        0.9713657979
 H       -19.3332805378       -4.4465613627        2.4147255767
 H       -19.1672055495       -5.6081560959        1.0104734696
 H       -19.5231044928       -2.6282993032        0.6973178420
 H       -20.5157087807       -3.8426479903        0.2618651512
 H       -17.1313164186       -0.4647930644       -3.6419756866
 H       -16.2203174255       -1.9267524273       -3.3386689238
 H       -16.1329610813        0.3893370596       -1.3722162040
 H       -15.4317760677        0.7632059532       -2.9508300169
 H       -10.3257902393        0.3288529139       -2.3672886544
 H       -10.9764331269        1.7792830812       -3.1628019353
 H       -11.0850620839        0.4075342481       -5.2121936210
 H       -10.0997920038       -0.7555458208       -4.5387331730
 H        -7.5821976045       -1.1647031359       -8.0005551000
 H        -6.9636518301        0.3381780152       -8.6541825994
 H        -9.0681847586        0.7863251141      -10.0005024710
 H        -9.5857911146       -0.7652638887       -9.4104468981
 H        -5.5719012531        0.2748063556      -13.0889930119
 H        -6.0094373299        0.6210535363      -11.4461027769
 H        -6.0437277911        3.0340244860      -12.1184440001
 H        -6.3358258068        2.7731661730      -13.7749306079
 H        -0.6961715582        0.9439415734      -11.9219947987
 H        -1.8808034835        1.3298250328      -13.2785510783
 H        -1.7539486034       -0.8232773740      -13.8965547203
 H        -2.7455198133       -1.2199428505      -12.3683709755
 H         1.3178290462       -4.3763258473      -11.0847828247
 H         2.0052360261       -2.7284889303      -11.5246997020
 H         3.1439901017       -4.1408627642      -13.5025650463
 H         2.9169426230       -5.4997885044      -12.7050117999
 H         8.3708450374       -4.2047389631      -14.5018902075
 H         8.2081364174       -5.4212273793      -13.2376947118
 H        10.0171454739       -3.9099184598      -12.5965442523
 H         8.6632244905       -3.3713142738      -11.6486096127
 H         8.5830581981        0.5596405156      -14.2579442429
 H         8.7854581490        1.9339814777      -13.2413944594
 H         6.8302159552        2.2372018925      -14.1769404696
 H         6.4360934290        1.8276004836      -12.5332870575
 H         2.4344788270       -1.7280762794      -14.4258483782
 H         4.1562648673       -2.0234158353      -14.8692018961
 H         2.0741681509       -1.2338827403      -17.0416214750
 H         2.3689727411       -2.9380801070      -16.6484152641
 H         6.0696108514        0.1067026622      -19.3952231526
 H         5.8661727044       -0.3358753846      -21.2308831472
 H         8.1835177779       -0.3903250060      -20.6637248039
 H         7.5892347421       -1.8797927529      -21.0385675632
 H         6.7398647293       -5.0851572029      -20.0913791069
 H         6.6886330170       -6.1915016133      -18.7632555887
 H         8.2561988580       -6.0985539641      -19.7076814308
 H        10.1078757238       -4.4470679762      -20.0681226044
 H        10.0690742365       -2.7716732883      -20.4995661523
 H         8.6990625043       -3.6923955971      -21.0824429495
 H        10.0648216493       -4.3243344819      -17.5632458759
 H         9.5230240447       -2.5799185626      -17.0465253413
 H        10.8470504495       -2.7618996176      -18.1594431332
 H         2.3939603638       -2.2841469711      -20.4664499199
 H         1.7245098582       -2.4261351330      -18.8557559574
 H         2.9727700943       -3.5496876487      -19.3138806442
 H         2.5674203001        0.0705320371      -20.1370262723
 H         3.8925625613        0.7350231046      -19.4627613166
 H         2.5084268411        0.3196985563      -18.4080097605
 H         4.1559457941       -1.1856574686      -12.7895994294
 H         2.9331716966       -0.0505493996      -12.2416806877
 H         4.6753715223        0.1143765992      -11.7841021945
 H         4.3268650004        2.5594949920      -12.7535870221
 H         2.9048187279        2.2025093792      -13.8057958680
 H         4.4412598046        2.7228521896      -14.5402186960
 H         9.3400993760       -2.2375729174      -10.7392196381
 H        10.2731570609       -0.5759516911      -10.4654233759
 H        11.1067378876       -2.1297070922      -11.1192944140
 H        10.6602062846       -0.3054061984      -14.2245609324
 H        11.7659971640       -0.8593832456      -13.0051912190
 H        10.9228414245        0.7306204522      -12.8651920907
 H         6.0339083634       -6.0727276666      -10.3560482493
 H         6.6663667088       -4.4492605417      -10.2543354388
 H         7.4745128888       -5.7554412911      -11.0996957230
 H         4.7168681493       -6.9162136667      -11.9207888977
 H         6.0902195122       -7.0146024767      -13.0099634603
 H         4.5511282325       -6.2411712292      -13.6032068745
 H        -0.8448723496       -3.1075308177      -10.4257962506
 H        -0.6976935316       -4.7475437130      -11.0543399733
 H        -2.2059184715       -3.9417896341      -11.0602480135
 H        -1.2899128475       -4.6775442586      -13.9072479174
 H        -0.8696886031       -3.0923987260      -14.6079968092
 H        -2.4401076099       -3.5111974258      -13.8768647978
 H        -1.7031315154        3.7883199322      -11.1360473023
 H        -2.5542516952        4.5398727170      -12.4838893727
 H        -1.4913833728        3.1071341420      -12.5664354786
 H        -4.7444307686        2.0170274019      -10.1202571990
 H        -4.8082301627        3.7626595669      -10.5132071959
 H        -3.4469260352        3.2252063649       -9.6839746832
 H        -8.3035437367       -2.8087782144      -12.4718341613
 H        -6.9442699937       -1.9053164792      -12.8579163098
 H        -8.0351606436       -1.8412201503      -14.0564749271
 H       -10.4864782197       -1.0947817579      -11.5890417437
 H       -10.3176545186       -0.7687169268      -13.2512752734
 H       -10.3170639607        0.4981833971      -12.0575886692
 H        -7.4885432217        2.6331982516       -6.6188370063
 H        -6.1624570234        1.3794247148       -6.8042967336
 H        -6.4384108923        2.0244337356       -5.2929330802
 H        -7.0055678958       -0.4890647923       -4.3171908585
 H        -6.6376564625       -0.9966633809       -5.9663358669
 H        -8.1253745279       -1.3043001428       -5.2168385961
 H       -14.3368960897        1.5595858308       -0.4791314036
 H       -13.9702285950        2.1180791525       -2.1358981488
 H       -12.6998541919        2.0504488882       -0.7927608486
 H       -11.2335875153       -0.4891819264       -0.7598895384
 H       -12.1789471608       -1.7308056312       -0.4935392097
 H       -12.5509273590       -0.2689002938        0.4141199124
 H       -19.6999316749       -3.7671429405       -3.6851395655
 H       -17.9576540304       -3.4595653788       -3.7219175582
 H       -19.1956954201       -2.1261612835       -4.2032891038
 H       -20.6923539642       -1.8725946707       -0.7686252932
 H       -21.0557547770       -1.8939668644       -2.4520420165
 H       -19.9074293625       -0.7410681883       -1.9046411420
 H       -18.1665595615       -6.8019117100        2.6298040110
 H       -17.1145772895       -6.1867226700        3.6863744345
 H       -16.3511397666       -7.4576572298        2.9618434235
 H       -14.4598396291       -5.9848514996        2.5900955359
 H       -15.3090699123       -4.4936226402        3.2019148209
 H       -14.5601214337       -4.5087366429        1.5816151995
 Na      -15.8332994326       -3.3865268014       -0.9200146959
 Na        6.7428526330       -2.5036595808      -15.8491788089
