232

 C       -16.5415442832       -7.6783260414        0.0377610818
 C       -15.9505318585       -6.3132141237        0.4148276380
 O       -15.2477316088       -5.6610208059       -0.3080846176
 C       -16.3026518253       -5.7100931077        1.8331512953
 C       -17.3275836960       -4.3685437931        1.5258018126
 O       -16.8110096554       -3.2821189455        1.3917399784
 C       -18.8739353476       -4.5667546621        1.5535853296
 C       -19.5464463936       -3.7456244820        0.3546416672
 C       -18.7720554063       -3.6196417689       -1.0031214888
 O       -17.8563766960       -4.3997504449       -1.2452332429
 C       -19.0729656908       -2.4873278571       -2.0684064278
 C       -17.8565389145       -1.5696017135       -1.7401282901
 O       -17.7126664160       -1.1908917987       -0.5694755727
 C       -16.8889023905       -1.0812687211       -2.7748112757
 C       -15.7886013512       -0.0305744977       -2.3719178892
 C       -14.4787220907       -0.7353636553       -1.8407308646
 O       -14.3275077912       -1.9760158620       -1.8518546755
 C       -13.1011707054        0.1220574392       -1.5391896447
 C       -12.3646874881        0.2000079827       -3.0719946276
 O       -13.0194381500       -0.0796475670       -4.0621860977
 C       -10.9312370956        0.6812285589       -3.1428384592
 C       -10.3355359867        0.4699689933       -4.5236091396
 C        -9.1790315270        1.3133503387       -4.8523822300
 O        -9.0478759814        2.3668404838       -4.2669552874
 C        -8.0509870291        0.7371492180       -5.8360539925
 C        -8.7961048661        0.3530144097       -7.1697563149
 O        -9.9308833756        0.6036061032       -7.4087312108
 C        -7.9170633251       -0.2097409569       -8.2887119635
 C        -8.7630638546       -0.2811793416       -9.5602787570
 C        -7.8921483694       -0.7209236255      -10.8160895559
 O        -6.7995917666       -1.1594156497      -10.6400070696
 C        -8.4276392235       -0.5967584544      -12.1437078159
 C        -7.7013744639        0.6338428291      -12.9062599865
 O        -8.2688507939        1.1042984489      -13.8302127793
 C        -6.2425112325        0.9331605263      -12.5159515079
 C        -5.7269149666        2.3920990790      -12.8125821154
 C        -4.2039892611        2.4082025687      -12.9273126218
 O        -3.6942106004        2.2669276838      -13.9605355181
 C        -3.2776828407        2.6022257038      -11.6066238091
 C        -2.8304767921        1.0353970312      -11.4848905905
 O        -3.4261022736        0.3676356585      -10.6864778876
 C        -1.7920562507        0.6234554985      -12.5109831315
 C        -1.9352329746       -0.7623603553      -13.0723799137
 C        -0.5999480159       -1.5420564918      -12.5362335758
 O         0.3096696459       -0.9267751418      -12.0956859314
 C        -0.6318836194       -3.0971733646      -12.4986628792
 C         0.8405410132       -3.4380995573      -12.9054489909
 O         1.1167831131       -3.3575233324      -14.1058208124
 C         1.8803687448       -3.8982214965      -11.8246021841
 C         3.1286948747       -4.5321525568      -12.4647223781
 C         4.5148935099       -4.1264163486      -11.7656091216
 O         4.6678456373       -3.0781978768      -11.1776635362
 C         5.6687293157       -5.0531550866      -12.1524021550
 C         6.4599024860       -4.2101000497      -13.1700075379
 O         5.9091085785       -3.4651970651      -13.9042382272
 C         7.9998797768       -4.5467955637      -13.5299236700
 C         8.8268460268       -3.5856502934      -12.7192616437
 C         9.0147792558       -2.1766232451      -13.2784620266
 O         8.7819374445       -1.9065215815      -14.4411327596
 C         9.6267963941       -1.0894229755      -12.3350478100
 C         8.4836592858       -0.0456497451      -12.2097136755
 O         7.9463071670        0.1079557509      -11.1441792531
 C         8.2282007173        0.8523079293      -13.4170117586
 C         6.7807273908        1.4606784713      -13.5191486422
 C         5.8132855068        0.4866177593      -14.2597898802
 O         6.2565153757       -0.4813199218      -14.8923230828
 C         4.2416515756        0.6420820619      -13.9161732190
 C         3.5077878875        0.1493569404      -15.1779068269
 O         3.0835774921        0.9553297679      -16.0276145552
 C         3.2528801351       -1.3341850249      -15.2909339180
 C         2.6571905748       -1.7897820677      -16.6014496090
 C         3.9003118948       -1.9045539067      -17.5784017035
 O         4.9377630416       -2.4612964295      -17.2099329116
 C         3.7587290263       -1.5227237610      -19.0689232293
 C         5.1719854911       -1.8874964414      -19.5860329989
 O         5.4108027728       -3.0436405996      -19.8269459844
 C         6.1084809653       -0.8160966084      -19.9522265773
 C         7.5343824708       -1.3480812082      -20.2695483106
 C         8.0336346850       -1.9095042279      -18.9410405240
 O         7.7077763536       -1.3559620319      -17.9210837353
 C         8.8580708474       -3.2545755241      -18.8732299355
 C         7.7632093436       -4.4047067578      -18.3226305097
 O         7.4605045487       -4.4879451438      -17.1958064079
 C         7.3818550427       -5.4671973771      -19.4399225644
 C         9.5053754633       -3.5756341230      -20.3422295798
 C         9.9414793465       -3.1158355054      -17.8053818923
 C         2.7089135335       -2.5356061450      -19.5524725040
 C         3.2663725827       -0.0353469019      -19.2329098879
 C         3.7986154152       -0.1934878630      -12.6338415716
 C         4.0450018074        2.2107467116      -13.8242230359
 C        10.0814128999       -1.6044008830      -10.9451645690
 C        10.8782032829       -0.3163101167      -13.0882341650
 C         6.6841655865       -5.2863579228      -10.8972361819
 C         5.2571726227       -6.4245123028      -12.8129954583
 C        -1.1424649072       -3.5618927501      -11.0850249025
 C        -1.5736598912       -3.5632103780      -13.6549544951
 C        -2.3318159429        3.8022607486      -12.0244712902
 C        -4.1838107923        3.0659134604      -10.4042004862
 C        -8.1164127410       -1.8640565091      -13.0291493007
 C       -10.0309835478       -0.4868923239      -12.2578846875
 C        -6.9305049459        1.7515322428       -6.0884274674
 C        -7.5109359216       -0.5203655582       -5.1630605280
 C       -13.4226109999        1.5485358227       -1.2038120982
 C       -12.1439142782       -0.5566789805       -0.5145199064
 C       -19.0773229431       -3.1148759920       -3.5195772594
 C       -20.4246848335       -1.6300564338       -1.8218611791
 C       -16.9886601204       -6.7640158096        2.7951609003
 C       -14.9644546859       -5.2128975871        2.4562552158
 H       -15.8415585467       -8.0827601524       -0.7344137948
 H       -17.5636544970       -7.7041923714       -0.3421996536
 H       -16.5999403034       -8.2658779662        0.9164867146
 H       -19.1380884652       -4.0798442528        2.5052534552
 H       -19.2298976196       -5.5865345137        1.5291138385
 H       -19.6440024047       -2.6713490960        0.7015493386
 H       -20.5801856639       -3.8714055349        0.1008878473
 H       -17.5151644045       -0.4742812354       -3.5207037535
 H       -16.4152139559       -1.8693284355       -3.3808537937
 H       -16.2673990018        0.5074098363       -1.5831152874
 H       -15.6122797926        0.6772535297       -3.1885190277
 H       -10.3817394213        0.1265625893       -2.3671794168
 H       -10.9072521638        1.7695443462       -2.9142390797
 H       -11.0728457585        0.5960780151       -5.2744048179
 H       -10.1041892661       -0.5805696442       -4.5899476500
 H        -7.3731956445       -1.1193581752       -7.9873855393
 H        -7.1212981299        0.4481149035       -8.5905984811
 H        -9.2325266954        0.7155480688       -9.7844181143
 H        -9.6022354653       -0.9425244187       -9.2637200348
 H        -5.5288260878        0.2656910266      -13.0418695377
 H        -6.1840614277        0.6050978677      -11.4436901613
 H        -6.1283062753        3.0181535024      -12.0165520440
 H        -6.2071107138        2.7112065935      -13.7275624235
 H        -0.8848471180        0.6846406339      -11.8921451090
 H        -1.7307225782        1.4044146053      -13.2572292821
 H        -1.9290011928       -0.7734639727      -14.1740449465
 H        -2.7919638309       -1.2696768119      -12.5909591792
 H         1.4189132179       -4.5835178203      -11.1250654058
 H         2.0653222686       -2.9182598119      -11.3749236039
 H         3.1251534537       -4.5305475620      -13.5805594003
 H         2.9442395730       -5.6328346403      -12.3813398165
 H         8.1940888591       -4.4089609714      -14.5560120614
 H         8.2746136018       -5.5419926915      -13.2233852299
 H         9.9352429230       -3.8706926101      -12.5935405100
 H         8.4930625220       -3.5967381052      -11.6655710664
 H         8.4805011106        0.3367147304      -14.2830656710
 H         8.9606656583        1.6495692005      -13.3431599147
 H         7.0188835453        2.3573506230      -14.1128385872
 H         6.3281287348        1.7667966824      -12.4686730717
 H         2.4115918312       -1.5731425992      -14.5861020565
 H         4.0463864411       -2.0742785995      -15.1374062463
 H         1.8456719470       -1.1155118334      -17.0051174347
 H         2.2638994165       -2.7920546221      -16.4093110392
 H         6.2229428751       -0.1140305452      -19.1331225967
 H         5.7198156573       -0.3869040517      -20.8654502602
 H         8.0629639262       -0.5128571488      -20.7894885679
 H         7.5291473474       -2.0395722656      -21.0728771829
 H         6.8332388876       -4.9191364689      -20.1425080333
 H         6.6953244295       -6.2831383625      -19.1257890525
 H         8.3016633290       -5.9232999677      -19.8916259628
 H        10.1934963611       -4.4893386744      -20.1629625101
 H        10.1020643353       -2.7711102376      -20.7563625494
 H         8.6889534486       -3.7483865382      -21.0452523702
 H        10.5675070754       -4.0080922644      -17.8637031608
 H         9.4806021971       -2.9803723698      -16.8316860079
 H        10.4949342801       -2.1553668412      -17.8699540266
 H         2.3701621220       -2.4181939818      -20.5732856118
 H         1.8176267801       -2.5374320814      -18.8687673737
 H         3.0852674907       -3.5439015086      -19.4113753515
 H         3.1918463777        0.0732984226      -20.3207401723
 H         3.9904145644        0.7722037384      -19.0926977936
 H         2.2966139383        0.2526166845      -18.8208235555
 H         3.8832521025       -1.2749196488      -12.8097891638
 H         2.8056092929        0.0383927116      -12.2480892633
 H         4.5844915047       -0.0163229351      -11.8616096361
 H         4.3804190163        2.6242884986      -12.8819121981
 H         3.0177378189        2.5600282706      -13.9678057153
 H         4.5628338465        2.7363654439      -14.6822325432
 H         9.2122591016       -2.1633291500      -10.5524696625
 H        10.3541831294       -0.7613354291      -10.3112241304
 H        10.9038840043       -2.3180763928      -11.1867343802
 H        10.6251366667       -0.3436360683      -14.1470006483
 H        11.7976665220       -0.8788751228      -12.8192848969
 H        10.9004860541        0.7186096940      -12.8796156544
 H         6.1805736051       -5.7157185537       -9.9775513084
 H         7.1425155493       -4.3657852040      -10.5732876627
 H         7.4991244886       -5.9730029134      -11.1126506444
 H         4.5907328195       -7.0442636907      -12.2212315186
 H         6.2138419962       -7.0103646453      -12.8788507234
 H         4.7797140382       -6.2568000433      -13.8469783769
 H        -0.7220259116       -3.1548566069      -10.1529232102
 H        -1.2483890436       -4.6839505964      -10.9333949893
 H        -2.1997912421       -3.2147335917      -10.9833432882
 H        -1.5940667203       -4.6831974412      -13.6573468110
 H        -1.3552153547       -3.1183337655      -14.6261291375
 H        -2.6329405521       -3.4297684713      -13.3546600314
 H        -1.5153633161        3.8243425947      -11.3170227619
 H        -2.7925215880        4.7138502846      -11.9963603564
 H        -1.7554079910        3.6306042195      -12.9271307604
 H        -4.9619767105        2.3364734871       -9.9974351453
 H        -4.6887699892        3.9452378280      -10.7140851303
 H        -3.6096418002        3.4608997963       -9.6038742943
 H        -8.9033082843       -2.5906546044      -13.0055289502
 H        -7.2343800897       -2.3851059083      -12.7042880317
 H        -7.7919187384       -1.5259547858      -14.0304463000
 H       -10.6082766787       -0.8012092964      -11.4412893128
 H       -10.3430759338       -1.0610083480      -13.1059496497
 H       -10.3509376190        0.5227862587      -12.4702716161
 H        -7.4512077631        2.7302180195       -6.1367138217
 H        -6.3765204251        1.5231313750       -6.9700377954
 H        -6.1164803318        1.7171072692       -5.3754444441
 H        -7.2387758112       -0.3633422908       -4.1060792240
 H        -6.6691616186       -0.9609490619       -5.6619450448
 H        -8.2193039091       -1.3203334081       -5.1003939089
 H       -14.1316890065        1.5875996405       -0.4056978968
 H       -13.8307998835        2.0375487839       -2.0415345143
 H       -12.4580442851        1.9972384809       -0.8536973326
 H       -11.1173260075       -0.2909605398       -0.7659922525
 H       -12.0021860418       -1.6248076572       -0.5824831177
 H       -12.5057484699       -0.3045566843        0.5104293256
 H       -19.9551677178       -3.7814046004       -3.6172612590
 H       -18.1429815899       -3.7582976414       -3.5800135922
 H       -19.0917958974       -2.3385218054       -4.2554559845
 H       -20.9322643676       -1.9459918770       -1.0176953307
 H       -21.1323771142       -1.7370106529       -2.6381165086
 H       -20.0751293728       -0.6136402935       -1.7185654057
 H       -17.9697287190       -7.0377693548        2.4802479684
 H       -17.1565730386       -6.3161079514        3.7677586809
 H       -16.1430600903       -7.4284376252        3.0089302729
 H       -14.3792871626       -6.1120602260        2.6224479812
 H       -15.1919546962       -4.8380531810        3.4492879464
 H       -14.3318558992       -4.4896145273        1.9204669243
 Na      -15.8692133725       -3.3176473817       -0.8990665873
 Na        6.9468252584       -2.4944577671      -15.8219053571
