232

 C       -16.2773454121       -7.5199945122       -0.0490884536
 C       -15.9419308282       -6.0948989379        0.3985073814
 O       -15.2595379433       -5.3180731655       -0.3444400983
 C       -16.2986128246       -5.6484956210        1.8531245846
 C       -17.1548960293       -4.3402098245        1.5363907493
 O       -16.5410791445       -3.2820037304        1.3407572051
 C       -18.7219311447       -4.6170743131        1.5028646376
 C       -19.4694302116       -3.7448628164        0.5664043204
 C       -18.8038087084       -3.5609467114       -0.8362145096
 O       -17.9844748197       -4.4188111581       -1.1042459193
 C       -19.0908825193       -2.4628833663       -1.9341747578
 C       -17.7900491696       -1.4950535576       -1.6651120196
 O       -17.4660068819       -1.3209164426       -0.5235320925
 C       -16.9750253714       -1.0090900805       -2.8648630202
 C       -15.8171655067       -0.0622488080       -2.4377964613
 C       -14.5161723824       -0.7513561923       -2.0500403512
 O       -14.3573683711       -1.9240052382       -1.8166581362
 C       -13.2907239348        0.0990272116       -1.7264092578
 C       -12.5541717356        0.2124690225       -3.1692293647
 O       -13.1914298535       -0.0757211583       -4.1380113307
 C       -10.9939027032        0.6842209731       -3.1406671668
 C       -10.5053612908        0.5591958803       -4.6635352565
 C        -9.1900948450        1.3951807058       -4.8550588758
 O        -9.1273497391        2.4798179189       -4.3331324152
 C        -8.0459234649        0.7766832850       -5.7000383759
 C        -8.7110580103        0.3267725168       -7.1299352159
 O        -9.9059132694        0.6389784419       -7.2884129144
 C        -7.9059068027       -0.3292499102       -8.2637315200
 C        -8.7664207923       -0.5469289305       -9.5528626155
 C        -7.9481807315       -0.8853856753      -10.7489503877
 O        -6.7852787550       -1.3111716678      -10.7062726254
 C        -8.5356581239       -0.6795068408      -12.2652278573
 C        -7.7543419515        0.4966233213      -13.0043210856
 O        -8.2556498493        1.1733480748      -13.8846952483
 C        -6.2671799565        0.8311069796      -12.6174589427
 C        -5.9773438397        2.3039492350      -12.9230572660
 C        -4.5047372316        2.5789894941      -12.9081584956
 O        -3.9303335940        2.4552731098      -14.0269499786
 C        -3.5562372540        2.7518669345      -11.5905249690
 C        -2.8977636981        1.3142490704      -11.5010983437
 O        -3.1118140456        0.6097096062      -10.5553441418
 C        -1.8396932095        0.9116044300      -12.5903074639
 C        -1.9509810923       -0.5439157055      -12.9674640608
 C        -0.6520948820       -1.4003073857      -12.5455542541
 O         0.4145000148       -0.8879023934      -12.2113770240
 C        -0.7370392660       -3.0473878518      -12.4329320007
 C         0.7864772118       -3.6857013623      -12.9205625987
 O         1.1225280137       -3.7017000952      -14.0634464902
 C         1.8381108503       -3.8580446739      -11.8486139024
 C         3.0053465631       -4.6644710646      -12.3150341048
 C         4.3675515844       -4.1728164961      -11.8633865855
 O         4.6182173792       -3.2038757771      -11.1894806525
 C         5.7443883635       -5.0834543269      -12.1616694076
 C         6.6711121607       -4.2159541395      -13.1956862850
 O         6.1327677970       -3.1948463490      -13.6939979993
 C         8.0873674743       -4.6722763038      -13.5352407426
 C         9.0585600965       -3.7742681391      -12.6779930853
 C         9.2517957809       -2.3666486510      -13.2524455131
 O         9.1513115920       -2.2201697982      -14.4715407392
 C         9.6813743499       -1.2247845035      -12.2722870101
 C         8.4119835184       -0.1951995261      -12.2244338916
 O         7.7376191776        0.0753704101      -11.3006156508
 C         8.1778951777        0.6664466877      -13.4611759951
 C         6.8215590939        1.3581021067      -13.4842248871
 C         5.7719382870        0.5372987203      -14.3465313482
 O         6.0947719106       -0.3757635403      -15.0176803195
 C         4.2186747108        0.9362844592      -14.1095943154
 C         3.5946103608        0.2499545460      -15.4130758455
 O         3.3707867962        0.9343657974      -16.3520189894
 C         2.9634828789       -1.0989144826      -15.2663314295
 C         2.5245387821       -1.7086583592      -16.7018574081
 C         3.8020116559       -2.0350833620      -17.4856764889
 O         4.8074536333       -2.4298078377      -16.9807939429
 C         3.7740623789       -1.7393044573      -19.1175853532
 C         5.1007619180       -2.0271048319      -19.7084725470
 O         5.4962416802       -3.1782373534      -20.0503530539
 C         6.0089745156       -0.9009886250      -20.0066609485
 C         7.4486307171       -1.4937930220      -20.1714721356
 C         8.0191384974       -1.9734628797      -18.8985556130
 O         7.7214457437       -1.5215450516      -17.7879909753
 C         8.9698443430       -3.2357853291      -18.9044122212
 C         7.9239355449       -4.4632383844      -18.4214236497
 O         7.5084601246       -4.4615740553      -17.2419383483
 C         7.4220078029       -5.4093125314      -19.5701223514
 C         9.6925220762       -3.5504404908      -20.2860803318
 C        10.0474670158       -2.9602730473      -17.7706098307
 C         2.6354363531       -2.5067335451      -19.9440744296
 C         3.3788779789       -0.2109027460      -19.1905967376
 C         3.8298159241        0.1714905802      -12.7859197181
 C         3.8925735853        2.4096363910      -13.9126124297
 C         9.9768472036       -1.6549331457      -10.7315822090
 C        10.9746345070       -0.5803078687      -12.9370447295
 C         6.4412318226       -5.2796138227      -10.8011000353
 C         5.5570685216       -6.5444319380      -12.7078807807
 C        -0.9604339287       -3.2376714656      -10.9785725562
 C        -1.8002518136       -3.7895739014      -13.2572997473
 C        -2.2693002018        3.6102740596      -11.9309592101
 C        -4.2052303341        3.1597689876      -10.2908142465
 C        -8.1917231376       -1.9367228372      -13.1382041636
 C        -9.9926086902       -0.2832678928      -12.3518100087
 C        -6.9303267240        1.8203286097       -5.7141593906
 C        -7.5761824933       -0.5864630452       -5.0808241574
 C       -13.5465259547        1.6276571646       -1.2474204955
 C       -12.4214738475       -0.6824078014       -0.7283162931
 C       -19.0428653336       -3.1627672732       -3.3595428578
 C       -20.4372097585       -1.6927612218       -1.7113403291
 C       -17.1023998263       -6.7371851777        2.7194266735
 C       -15.0171429309       -5.1617424793        2.6133099542
 H       -15.7932616196       -7.6732817383       -0.9860543139
 H       -17.3557288087       -7.6051662771       -0.2009252339
 H       -16.1284757646       -8.3284603158        0.7058022999
 H       -19.1241883781       -4.4353097148        2.4972445309
 H       -18.8327278129       -5.6629053755        1.1498672959
 H       -19.6831049348       -2.8155925461        1.0394485949
 H       -20.5342527776       -3.9888706781        0.3133106599
 H       -17.5933178749       -0.4694633703       -3.5368333905
 H       -16.5036079831       -1.8286958419       -3.4124692202
 H       -16.2450109996        0.6512009623       -1.6950117159
 H       -15.5669286546        0.5482537072       -3.3167869856
 H       -10.4269379049        0.0033635642       -2.4857738768
 H       -10.7705883160        1.7104650738       -2.8186441802
 H       -11.2537953057        1.0127562742       -5.4135444533
 H       -10.4530445446       -0.5345830224       -4.8272385080
 H        -7.4231691653       -1.2597855732       -8.0212995426
 H        -7.1270513410        0.3757080261       -8.5964800361
 H        -9.3493183031        0.2958286658       -9.8783716809
 H        -9.4743454248       -1.3697010936       -9.3763875314
 H        -5.5413513120        0.1375310842      -13.0266309258
 H        -6.2559127711        0.7112576425      -11.5608594926
 H        -6.5588130236        2.7670837749      -12.0988701020
 H        -6.5280550798        2.6546094783      -13.8512232432
 H        -0.8438788359        1.2181349957      -12.2369476522
 H        -2.0519764386        1.5641213319      -13.4788300763
 H        -1.9805186431       -0.6337427061      -14.0639495768
 H        -2.8004550367       -1.0476310966      -12.5177112656
 H         1.3141455527       -4.3184679498      -10.9847560792
 H         2.1482448027       -2.8151833094      -11.5481445843
 H         3.0815488828       -4.4943531381      -13.4004291781
 H         2.8345600917       -5.7483023180      -12.3205682638
 H         8.2379271527       -4.5154235580      -14.6388682411
 H         8.2627477785       -5.7181698287      -13.2182145967
 H         9.9846750676       -4.2408070187      -12.5176839934
 H         8.6933113504       -3.7002226561      -11.6645558447
 H         8.4666141405        0.1313880642      -14.4645004502
 H         9.0407122590        1.3758404690      -13.2783984489
 H         6.8818542530        2.3957575184      -13.9332739931
 H         6.5033787353        1.3933747148      -12.4932618634
 H         2.0838913243       -0.9672663632      -14.6757339756
 H         3.6808189268       -1.8143853355      -14.8357965852
 H         2.0310789751       -0.9183264974      -17.2280888837
 H         1.8562427803       -2.5926130149      -16.6642039396
 H         5.9600006392       -0.1690783681      -19.2113908762
 H         5.7187531076       -0.5717415198      -21.0035581094
 H         8.1053565927       -0.7532651912      -20.6128910161
 H         7.4977758576       -2.1903666361      -21.0520253562
 H         6.8347363406       -4.8253201944      -20.3163933908
 H         6.8271764408       -6.2011690629      -19.1966597816
 H         8.2664831903       -5.9045607772      -19.9524317586
 H        10.3176027146       -4.3972468822      -20.1332908576
 H        10.2818295245       -2.6698762330      -20.4912541094
 H         9.0354245645       -3.6551690285      -21.1445071616
 H        11.0140891764       -3.3299317858      -18.0206268113
 H         9.8239385087       -3.5323805754      -16.8707849577
 H         9.9557270372       -1.9792770158      -17.4231420190
 H         2.8029626933       -2.1331695114      -20.9545883987
 H         1.6167413307       -2.4068626572      -19.6375178384
 H         2.8005668617       -3.5731882840      -20.0513621827
 H         3.8048512797        0.5112243063      -19.8730159982
 H         3.6907942158        0.2691686711      -18.2770305139
 H         2.2824823860       -0.1318117671      -19.2160370816
 H         4.3788597798       -0.7453742046      -12.6010063681
 H         2.7264734975        0.0039195823      -12.7880417320
 H         4.1257083415        0.7505202003      -11.9210455666
 H         4.5563395296        2.7268947758      -13.1445469800
 H         2.8828829691        2.7049473262      -13.6178902152
 H         4.0595433047        2.9718223196      -14.7534829329
 H         9.0395739357       -1.4524825242      -10.2127552390
 H        10.6992193031       -0.9289655052      -10.2068296233
 H        10.2634427217       -2.6829736876      -10.7181869805
 H        10.6780612787       -0.1670717198      -13.8996232938
 H        11.6172187546       -1.4196926097      -12.9781513905
 H        11.3732969536        0.3378846144      -12.3740024415
 H         5.8493594260       -5.8844620544      -10.1440994944
 H         6.7640530332       -4.3293562523      -10.2730516436
 H         7.4325405842       -5.7723590287      -10.9342762631
 H         4.9586324208       -7.1020084039      -11.9635542053
 H         6.4904403205       -7.0282110893      -12.9187068822
 H         4.9768983047       -6.5582085068      -13.5559025513
 H        -0.0772317653       -3.0623372967      -10.3795177504
 H        -1.3148705347       -4.1663795651      -10.6668328845
 H        -1.6434726807       -2.5336599351      -10.5350183790
 H        -1.8496176340       -4.8697353704      -13.1639010801
 H        -1.7740745477       -3.4238425348      -14.3003652007
 H        -2.7868262954       -3.4782993785      -12.8684150642
 H        -1.3045203157        3.3848885901      -11.5058055553
 H        -2.5160828735        4.6421674102      -11.4886617325
 H        -2.0610997951        3.7018624420      -12.9934408889
 H        -4.9601271673        2.4986838359      -10.0065671507
 H        -4.6323458881        4.1846670762      -10.2386884053
 H        -3.4479789953        3.0745601013       -9.4900169894
 H        -9.0223281162       -2.6677460629      -13.1868532012
 H        -7.3034557712       -2.4766611528      -12.7548754791
 H        -7.9213279095       -1.6748589755      -14.1602816886
 H       -10.5792566906       -0.6682809803      -11.4528917429
 H       -10.5069841624       -0.7001556337      -13.2550293379
 H       -10.1883044111        0.7943709017      -12.4333586669
 H        -7.3740273236        2.7537165432       -5.5100134163
 H        -6.2361949303        1.7982746301       -6.5851007135
 H        -6.2659311270        1.5964179864       -4.8734936691
 H        -7.3386115201       -0.4989373242       -4.0385384784
 H        -6.6887227560       -1.0472314873       -5.6174125831
 H        -8.3499227226       -1.3811797896       -5.0635687830
 H       -13.7655642479        1.5075301137       -0.1686401794
 H       -14.3161128714        2.2479438209       -1.8417710813
 H       -12.6128835333        2.0858443574       -1.3697363684
 H       -11.6333722273       -0.0231698999       -0.3340014102
 H       -11.8070729578       -1.5538639954       -1.0818128841
 H       -13.0909062553       -1.0270000089        0.0368637926
 H       -19.9026238894       -3.7726562685       -3.4063908639
 H       -18.2321007373       -3.8249210405       -3.3383202420
 H       -18.9063001210       -2.4359113455       -4.2158500957
 H       -21.1162433218       -2.5217300387       -1.2429313462
 H       -20.9623042515       -1.5455025487       -2.6580807291
 H       -20.3582526243       -0.7774361585       -1.0843900233
 H       -17.9761906995       -7.0618678872        2.1149404503
 H       -17.4959421044       -6.3009220935        3.6196340602
 H       -16.3627099191       -7.4092841149        3.0901392916
 H       -14.1942257859       -5.8797220154        2.5863368506
 H       -15.1789749331       -4.9199569367        3.6468186793
 H       -14.6926333541       -4.2908420291        2.1179608267
 Na      -15.7282943150       -3.3167794844       -0.6809219003
 Na        7.2585892652       -2.5044274196      -15.9244796033
