232

 C       -15.4997523489       -7.5550516027        0.1284563116
 C       -15.5825397138       -6.1406907301        0.5083927713
 O       -15.3015666372       -5.1943719789       -0.1720704245
 C       -16.1905020711       -5.8113172192        2.0620205853
 C       -17.0986335946       -4.4731411927        1.9723786014
 O       -16.6126238458       -3.3633927759        2.1234888149
 C       -18.6608557477       -4.6389345361        1.7093395543
 C       -19.3409877534       -3.5397362407        0.9387979239
 C       -18.6248960126       -3.4453047967       -0.4918387261
 O       -17.6709125075       -4.1789507750       -0.7664704228
 C       -18.9851694133       -2.4139533924       -1.6372698785
 C       -17.6984881142       -1.4696735791       -1.7646064179
 O       -17.0306476163       -1.2868743527       -0.7467369490
 C       -17.4376731267       -0.8001478905       -3.1398808298
 C       -16.1076089365        0.0346927382       -2.9782353879
 C       -14.9316894990       -0.6094190757       -2.3248437108
 O       -14.9084688332       -1.8065019677       -1.9949718334
 C       -13.6306907129        0.1984612732       -2.0861269000
 C       -12.9361272969        0.5029389305       -3.4798481487
 O       -13.5672104700        0.4908191424       -4.5128387061
 C       -11.4457200531        0.9520447410       -3.5189760719
 C       -10.7795365977        0.7718294233       -4.8696609222
 C        -9.3853178651        1.3214486783       -4.8193599551
 O        -9.0980048173        2.1956700267       -4.0522668092
 C        -8.2252768217        0.6443318593       -5.8135779039
 C        -8.7322225253        0.4991464473       -7.3337434593
 O        -9.9058515828        0.8332734002       -7.5408863576
 C        -7.9397040148       -0.3277628475       -8.3525786598
 C        -8.3828715193       -0.0040991665       -9.7729960840
 C        -7.9796028300       -1.0232036259      -10.7570473042
 O        -7.0417522672       -1.8081135369      -10.6000688365
 C        -8.4921207628       -0.9176374693      -12.2250510744
 C        -7.9230999709        0.4873023622      -12.7534425022
 O        -8.5947750955        1.3288075887      -13.3300343128
 C        -6.3940314694        0.8114974585      -12.3532052122
 C        -6.0053373446        2.1660502353      -13.1561723870
 C        -4.5099622163        2.8119383513      -13.1318344300
 O        -4.1559786659        3.5094648084      -14.0996540275
 C        -3.6163982843        2.8569009152      -11.8206424339
 C        -2.8292675828        1.5477609518      -11.4854395204
 O        -2.8741924137        1.0422152884      -10.3581945790
 C        -1.9429691974        0.9725065295      -12.6001156818
 C        -1.8526341307       -0.5683350551      -12.3329465779
 C        -0.5484581683       -1.4416277991      -12.7770671176
 O         0.5199879498       -1.0000565845      -13.3093242611
 C        -0.6019373815       -2.9361062409      -11.9276561436
 C         0.5915355907       -3.8788619420      -12.6237438788
 O         0.3706008639       -4.5223555476      -13.6084710005
 C         1.9626513801       -3.6698106413      -12.0261723394
 C         3.2600692117       -4.2438920706      -12.8247047847
 C         4.4878606787       -4.0830638736      -11.9655546227
 O         4.8129194392       -3.0538991492      -11.3456300299
 C         5.6257513154       -5.1461174924      -12.1354246497
 C         6.6369453840       -4.5145694582      -13.2187613041
 O         6.2748594329       -3.5714962140      -13.8573891290
 C         8.1160761878       -4.9509549378      -13.3495534729
 C         9.0320429559       -4.2125336664      -12.4359973826
 C         9.3692766192       -2.7153891742      -13.0584675256
 O         9.2427438247       -2.5731437761      -14.2526569069
 C         9.6289020622       -1.5318035538      -12.2150553527
 C         8.2845590608       -0.6379131115      -12.3279353838
 O         7.3431370060       -0.8159384255      -11.5751458832
 C         8.1606808968        0.1833382795      -13.6216869622
 C         6.9543142755        0.9867502183      -13.7266586762
 C         5.8670893771        0.3288666195      -14.4806693932
 O         6.0166641328       -0.6388619358      -15.1969716183
 C         4.4764831954        1.0223234355      -14.5920638632
 C         3.6645055229        0.4689879288      -15.7943638983
 O         3.7398712992        1.0689912456      -16.8283331013
 C         3.0605351124       -1.0017640981      -15.5166605890
 C         2.5545216835       -1.5758456518      -16.8414163503
 C         3.7814177296       -1.7919171173      -17.6996952418
 O         4.8995481848       -2.0668165975      -17.2169523184
 C         3.6895396584       -1.8039847536      -19.2373885484
 C         5.1597494088       -2.2546421310      -19.7757716897
 O         5.3649178269       -3.3758709108      -20.0303827972
 C         6.1029650546       -1.0514986094      -20.0453723459
 C         7.5074768297       -1.6450205528      -20.1964306068
 C         8.2416926832       -1.8903850762      -18.8677936050
 O         7.9136608756       -1.2099055637      -17.8889894770
 C         9.1549206298       -3.0660040588      -18.5943605906
 C         8.2157609698       -4.3850547763      -18.1877694947
 O         7.6382806969       -4.3196521637      -17.1136385224
 C         8.1274911301       -5.6069657721      -19.0173833506
 C         9.9581698133       -3.4991321423      -19.8250996665
 C        10.1578013767       -2.8089989790      -17.4129004325
 C         2.8093061744       -2.9771584341      -19.6886399825
 C         3.1496906003       -0.4584714802      -19.6903059661
 C         3.8518049352        0.8033904779      -13.1545899712
 C         4.6605171341        2.5140855870      -14.7820639078
 C        10.0377126204       -1.6220817412      -10.7768424714
 C        10.8362647236       -0.7421701320      -12.8402317330
 C         6.3297471578       -5.3177429776      -10.7420288475
 C         5.2009800502       -6.5316368003      -12.7298355805
 C        -0.5120504278       -2.6637989477      -10.4706013541
 C        -1.9113951628       -3.5983426866      -12.3497196310
 C        -2.6659777542        4.0274935992      -11.9537618976
 C        -4.5949203046        3.2039201182      -10.5964525723
 C        -8.1061570988       -2.0647243080      -13.1288229388
 C       -10.0492326565       -0.8800268892      -12.3345694859
 C        -6.9902029502        1.4996004056       -5.7080067842
 C        -7.8629408955       -0.7381801639       -5.2469628528
 C       -13.8726583686        1.6747688195       -1.5921782379
 C       -12.5707651364       -0.4696541547       -1.0081790843
 C       -19.2132695519       -3.1562320717       -2.8945964546
 C       -20.2827753096       -1.5667757857       -1.3848215552
 C       -17.0058272570       -7.0009956288        2.5991577044
 C       -14.9124133209       -5.7234818111        2.9657334134
 H       -14.8702050843       -7.7555025983       -0.7146234199
 H       -16.5236215280       -7.9756994465       -0.0644987445
 H       -15.1072013149       -8.0930176647        0.9946865892
 H       -19.1394407567       -4.7595294205        2.7218926342
 H       -18.7169202300       -5.6007029930        1.0702179581
 H       -19.4490095275       -2.5145312552        1.3747158098
 H       -20.3528452922       -3.7040729597        0.7266363432
 H       -18.2994282202       -0.1786205726       -3.4873680269
 H       -17.2299625673       -1.5121232839       -3.8953842891
 H       -16.3508525375        0.9303609093       -2.3674136762
 H       -15.7523154286        0.4879165238       -3.9236483511
 H       -10.8652038523        0.4010545204       -2.7737615324
 H       -11.3734741412        1.9438111135       -3.0990710424
 H       -11.3545988881        1.4102657586       -5.5594899790
 H       -10.7597191473       -0.3274217348       -5.1179058676
 H        -8.3084156341       -1.3858724710       -8.1278184059
 H        -6.8483011291       -0.2197184375       -8.0858160209
 H        -7.8966390639        0.9318086101       -9.9671761661
 H        -9.4217358811        0.1204302675       -9.8830075233
 H        -5.6727430796        0.0486204198      -12.6433887037
 H        -6.3601359972        0.8780715207      -11.2534430832
 H        -6.6088903388        3.0815689204      -13.0298145341
 H        -6.1212179633        1.8373110181      -14.1235451442
 H        -0.9250241982        1.4530754535      -12.6824849776
 H        -2.3046950106        1.1214501973      -13.5994209528
 H        -2.5704025565       -1.0971668293      -12.9226464457
 H        -2.1255603854       -0.9451724853      -11.3870341105
 H         1.9462556078       -3.9096280553      -10.9374612239
 H         2.0062694229       -2.5718627620      -11.9618175136
 H         3.3776996895       -3.5545163974      -13.6660177211
 H         3.0985572828       -5.2984968617      -13.1331591053
 H         8.4933397728       -4.6282709537      -14.3570607439
 H         8.1555382671       -6.0645769034      -13.3369824106
 H         9.9585205169       -4.7810799403      -12.2908409174
 H         8.5435631015       -4.0731344621      -11.4865266643
 H         8.2466334247       -0.5751311776      -14.3937985239
 H         8.9430357193        0.9166962149      -13.8873332979
 H         7.1578895877        1.9214447262      -14.1682028079
 H         6.5318174695        1.1591934344      -12.7700005054
 H         2.1077686571       -0.8686990687      -14.9141856284
 H         3.7566671942       -1.7203926963      -15.1241416470
 H         1.8171119777       -0.9445043505      -17.3224323417
 H         2.0460821845       -2.4900061619      -16.5713741447
 H         6.0512816675       -0.4634311220      -19.0922888745
 H         5.7032137707       -0.3451687429      -20.8363702009
 H         8.0289656187       -1.0708737780      -20.9673686902
 H         7.4266841216       -2.6072038660      -20.6817493656
 H         7.6000104873       -5.1277335130      -19.8624244422
 H         7.5766574651       -6.3795968760      -18.5148116758
 H         9.0847796860       -5.9675942133      -19.3949597015
 H        10.5439213681       -4.2660070927      -19.5516770976
 H        10.6466253078       -2.6657225915      -20.1599157908
 H         9.3408125691       -3.8562314913      -20.6123163773
 H        11.1390095119       -3.2577365087      -17.6456066541
 H         9.8773757751       -3.2704212303      -16.4825925314
 H        10.3847083222       -1.7386356434      -17.3178509762
 H         3.0457687780       -3.4490266892      -20.6408168433
 H         1.7851979658       -2.7471237709      -19.7044102666
 H         3.0135421890       -3.8046225548      -18.9870519015
 H         3.3924594003       -0.2360557871      -20.7470714684
 H         3.3878502141        0.3986247732      -19.0313825099
 H         2.1045554425       -0.4903202387      -19.7561106997
 H         3.9777955006       -0.2451572173      -12.8158059862
 H         2.8520665047        1.1352414829      -13.0220290525
 H         4.4707120301        1.4936511493      -12.5733270927
 H         5.0125342718        3.1804224702      -13.9708782860
 H         3.7939511654        2.9311845237      -15.1566075250
 H         5.4587019155        2.6535132127      -15.5046438055
 H        10.2615958609       -2.7415149461      -10.4555610688
 H         9.1748230966       -1.3382755087      -10.1569931119
 H        10.9285307008       -1.0462582704      -10.4951036643
 H        10.8180747718       -0.6780306789      -13.9314153719
 H        11.7329610610       -1.3201635725      -12.5740791931
 H        10.9197905227        0.1411107923      -12.2861801995
 H         5.6265058973       -5.6394071307       -9.9836889177
 H         6.7717879624       -4.3953729224      -10.3995529493
 H         7.1925701181       -6.0528006016      -10.7787788921
 H         4.6315990155       -7.1217709655      -12.0593324294
 H         6.0973182032       -7.0876850590      -12.9660658534
 H         4.6831615057       -6.3196980585      -13.6649488350
 H         0.4024511589       -2.3106042328      -10.1138048319
 H        -0.6926046018       -3.4750554745       -9.8065373701
 H        -1.2025945813       -1.9470880437      -10.1258931035
 H        -1.8001756259       -4.6404130276      -12.3079913929
 H        -2.0629128090       -3.3565961028      -13.3805139918
 H        -2.7167650858       -3.1204964431      -11.8842259854
 H        -1.8988279892        3.8913833245      -11.1013431262
 H        -3.1154008914        5.0279328409      -11.9168154975
 H        -2.1282190979        4.1014169697      -12.9115894810
 H        -5.4448080063        2.5494935006      -10.4772178952
 H        -5.0252037053        4.2083754242      -10.6453978370
 H        -4.0710974286        3.1447083475       -9.5979110331
 H        -8.8344467868       -2.8789194457      -13.0016601012
 H        -7.0829038494       -2.3893928448      -12.7899977029
 H        -8.2258123502       -1.8594773594      -14.1396937372
 H       -10.4966851450       -1.8718965211      -12.1741732599
 H       -10.3379440732       -0.4824045850      -13.3468140877
 H       -10.4866418513       -0.1036557280      -11.6181245760
 H        -7.1181943649        2.4443349838       -6.3008550670
 H        -6.1982188496        1.0758970605       -6.2396842031
 H        -6.8188199969        1.7930008738       -4.6864127371
 H        -7.4131125542       -0.7049200103       -4.2007098287
 H        -7.0893088816       -1.1552376411       -5.8072670520
 H        -8.7181449111       -1.4665581722       -5.2964249587
 H       -14.3175384633        1.5848389142       -0.5737833905
 H       -14.5315604309        2.1151673749       -2.3595188001
 H       -12.8781838680        2.2076197678       -1.6009890868
 H       -11.6839276558        0.0892733232       -0.9110001301
 H       -12.5403121193       -1.4684445974       -1.1370015909
 H       -12.8509752493       -0.3630268359        0.0222616833
 H       -20.2416504413       -3.5915585276       -2.8730958026
 H       -18.4309228503       -3.8806371161       -2.9739597270
 H       -19.1872215933       -2.5562156249       -3.7566795337
 H       -20.9385548938       -2.0517164873       -0.5873636222
 H       -20.7595921134       -1.4232612615       -2.3544555964
 H       -20.1438770411       -0.5792287448       -0.9488494865
 H       -17.6570716472       -7.5436571115        2.0255906088
 H       -17.3767822405       -6.6014488355        3.5862776724
 H       -16.2885866274       -7.7239727294        2.7682468092
 H       -14.3132910362       -6.5673077045        2.7828909400
 H       -15.1690769353       -5.7357788164        4.0169187080
 H       -14.2373762928       -4.8474295955        2.8329282866
 Na      -15.5931684948       -2.9185971856       -0.1610055041
 Na        7.1064524523       -2.5577946113      -15.9343777634
