232

 C       -15.0363748088       -7.6744091283        0.4776817607
 C       -15.1370964920       -6.1715551254        0.9616225770
 O       -14.5433498317       -5.2577802405        0.4216902032
 C       -16.0754488520       -5.9932582457        2.2143279039
 C       -16.8981100459       -4.6847178445        1.9931773648
 O       -16.2840976627       -3.6530088810        1.7542786900
 C       -18.4517814012       -4.6772793984        1.9528763531
 C       -19.1183968824       -3.5332014323        1.1751799414
 C       -18.5937417425       -3.3160714758       -0.2956121599
 O       -17.6552996925       -3.9242138274       -0.6878339358
 C       -19.1616243602       -2.1909405249       -1.3184490936
 C       -18.0477270568       -1.1635438035       -1.6442063735
 O       -17.7825352670       -0.3940315273       -0.7810950650
 C       -17.4072877847       -1.1379079582       -3.0245372855
 C       -16.2663638273       -0.1397580256       -3.1617597707
 C       -14.9923632990       -0.5929451013       -2.4330550722
 O       -15.0270148880       -1.6813480131       -1.9042640471
 C       -13.8074389865        0.3857786903       -2.2619598390
 C       -13.0591341088        0.7398729594       -3.6296126624
 O       -13.6961805323        0.8869351417       -4.6701938861
 C       -11.5052166381        0.9646801782       -3.5398884093
 C       -10.8870923751        0.8855440894       -4.9110900496
 C        -9.3856728556        1.2190799847       -4.8629684986
 O        -8.9695189542        1.8807631042       -3.9203077012
 C        -8.4237545114        0.5896021305       -5.8222902365
 C        -8.9083417243        0.6609398368       -7.3042931296
 O        -9.7842677125        1.3434826538       -7.7242346613
 C        -8.2181999081       -0.3601084029       -8.3719485541
 C        -8.7329412124       -0.1003599277       -9.8280116526
 C        -7.8367436794       -1.0675381651      -10.7357966784
 O        -7.3034955260       -2.0438681972      -10.2684311195
 C        -7.9799672240       -0.8978032217      -12.3276940321
 C        -7.6116055179        0.7094358473      -12.7927990871
 O        -8.4452249471        1.5567769668      -12.5921503606
 C        -6.1786241609        1.0059676246      -13.1414189717
 C        -5.8927713804        2.5050900015      -13.2320220013
 C        -4.3662325910        2.6924164273      -13.3168789526
 O        -3.5741365977        2.4957890408      -14.2108648303
 C        -3.6735330707        2.9842378624      -11.9219354061
 C        -3.2492174025        1.5027866473      -11.4059319776
 O        -3.8042574817        1.0776254197      -10.4526719475
 C        -2.2533530653        0.7472019266      -12.2893995677
 C        -2.3189320629       -0.8139183063      -12.1723757619
 C        -1.0330365451       -1.4738050796      -12.7426927790
 O        -0.2113174881       -1.0513352324      -13.4426651035
 C        -0.5562497595       -2.7523310054      -11.8703640915
 C         0.6776292914       -3.4767734639      -12.4273019357
 O         0.5750318406       -4.6399913997      -12.7969877229
 C         2.0918056281       -2.7149194027      -12.8277983608
 C         3.2930542078       -3.8559306628      -12.9669155769
 C         4.4609203338       -3.8699263103      -12.0136933850
 O         4.6944627086       -3.0787387074      -11.1576606863
 C         5.3453705707       -5.1326291988      -12.2992588563
 C         6.4044778106       -4.6865220402      -13.3785933068
 O         5.9399509009       -4.3275366546      -14.5019870735
 C         7.8186258294       -5.2980472024      -13.2932019035
 C         8.8452680510       -4.3365426781      -12.5549843684
 C         9.1438772422       -2.9306543403      -13.2392716524
 O         9.0261880404       -2.7287939094      -14.4479974513
 C         9.6299486959       -1.6376408820      -12.3745988798
 C         8.4005284288       -0.6635773237      -12.4169739215
 O         7.4935244942       -0.7011513944      -11.5687487533
 C         8.3657362122        0.4771063629      -13.4077437672
 C         7.0556807712        1.3042673776      -13.3825196515
 C         5.9067650200        0.5627911161      -14.3904016011
 O         6.0971552181       -0.6355964992      -14.6809461446
 C         4.6359286392        1.3270472645      -14.8228274975
 C         3.8302066667        0.5543667339      -15.9435772976
 O         3.4586406417        1.0693300608      -17.0099053412
 C         3.4237979573       -0.8617399321      -15.6231878544
 C         2.8851331939       -1.5324074081      -16.8907542392
 C         4.0852986165       -2.0269647568      -17.7258426633
 O         5.1439141473       -2.3022782301      -17.2508582259
 C         3.9239458922       -2.1865788751      -19.3101641642
 C         5.2597924945       -2.4172247048      -19.9402185367
 O         5.6845094353       -3.6014282968      -20.1708493339
 C         6.2663635840       -1.1948293830      -20.0357295351
 C         7.6756597482       -1.6841044744      -20.1232556660
 C         8.1966155063       -1.9851109587      -18.6727744391
 O         7.7474796740       -1.5013008177      -17.6880678755
 C         9.3010613700       -3.1515316942      -18.4827131795
 C         8.4627985322       -4.4121753315      -18.0427676648
 O         7.8455140488       -4.3420377994      -16.9895154624
 C         8.6027251911       -5.7113213069      -19.0043979750
 C         9.9835469442       -3.3251804717      -19.8154570358
 C        10.3070324959       -2.7750177220      -17.3291356517
 C         3.0335195385       -3.4411662396      -19.4772202897
 C         3.3619380373       -0.9123422037      -19.9713014235
 C         3.6574340264        1.5628091089      -13.7000776180
 C         4.8983394599        2.7447772256      -15.3802751591
 C         9.8774212260       -2.0321589726      -10.9305928007
 C        10.9429368696       -1.2504526529      -13.0705276223
 C         6.0327521720       -5.5626525749      -11.0601665046
 C         4.4873033974       -6.2712607569      -12.8530127665
 C        -0.3526087193       -2.2369549187      -10.3937146161
 C        -1.7584081228       -3.7382300854      -11.8653922281
 C        -2.4927057143        4.0898153490      -12.1218045328
 C        -4.7604124825        3.6122596733      -10.9370486943
 C        -7.1301717583       -1.9983765799      -12.9706357417
 C        -9.4828336294       -1.1175061927      -12.6249804018
 C        -7.0805070137        1.4291368311       -5.8566839323
 C        -8.1102636187       -0.9467454970       -5.4193127018
 C       -14.3915544195        1.8426251835       -1.8086859621
 C       -12.9405192592       -0.2612026691       -1.0884553035
 C       -19.5935233144       -2.9300867252       -2.6782627833
 C       -20.4467311607       -1.5388482667       -0.8052518559
 C       -17.0353041070       -7.2190011682        2.4606866703
 C       -15.2096812113       -5.7890337883        3.4374831649
 H       -14.4895694086       -7.7298844160       -0.4618139645
 H       -15.9614264806       -8.0189696959        0.0963666182
 H       -14.4702731932       -8.4027420444        1.0660265229
 H       -18.8243328034       -4.6536419321        3.0162672608
 H       -18.7568481711       -5.7160915282        1.6284573287
 H       -18.9222860639       -2.5436784828        1.5629679023
 H       -20.2238945940       -3.6735358584        1.1126448487
 H       -18.1818008589       -0.6146723340       -3.5966788836
 H       -17.2183995135       -2.0967868680       -3.5311267536
 H       -16.6655788216        0.9117492278       -3.0130377173
 H       -16.0339427068       -0.1340874619       -4.2193499885
 H       -11.0528327864        0.1638245298       -2.8879267087
 H       -11.2207594032        1.8924410540       -3.0579059626
 H       -11.3936180648        1.6584475872       -5.5728482246
 H       -11.0021010454       -0.0372243901       -5.4719860325
 H        -8.4023788866       -1.4264898037       -8.0677653511
 H        -7.1567903422       -0.2197151765       -8.1014404017
 H        -8.7491581080        0.9514944217      -10.0635321529
 H        -9.7281051331       -0.4710686992       -9.9094515595
 H        -5.9985523861        0.3764985143      -14.0580286210
 H        -5.5281513076        0.6327448500      -12.3678744979
 H        -6.3001076405        3.0070586891      -12.4417922088
 H        -6.2845830711        2.7568215026      -14.1865294139
 H        -1.3372141955        1.2612414057      -11.9454038564
 H        -2.4405626729        1.0012280664      -13.3502019334
 H        -3.1966212602       -1.1544153150      -12.6323140209
 H        -2.4780452843       -1.1322130816      -11.1433858783
 H         2.4058313968       -1.9388824577      -12.0896153842
 H         1.8897625127       -2.1605891938      -13.7496113507
 H         3.8014419251       -3.4407093814      -13.8609393772
 H         2.7788962782       -4.7926039296      -12.9541878478
 H         7.9753136666       -5.4805256836      -14.3915885247
 H         7.8602853548       -6.2739960065      -12.8060684724
 H         9.7601648446       -4.8504379838      -12.3195635717
 H         8.2419667714       -4.0555303301      -11.6728952233
 H         8.5322623292        0.1388247442      -14.4278013764
 H         9.1932788619        1.1476083936      -13.2957413050
 H         7.0930484426        2.3074819984      -13.8952548743
 H         6.5975427467        1.3963896291      -12.4523654809
 H         2.7554139737       -0.7060245206      -14.7447781256
 H         4.3723048367       -1.2855526643      -15.2721341674
 H         2.3880224912       -0.7582722206      -17.3822632434
 H         2.1142629448       -2.3173152711      -16.7531827089
 H         6.1755251419       -0.5807923913      -19.0812930733
 H         5.9857791304       -0.4166228332      -20.7629348311
 H         8.3257095897       -1.0262573613      -20.6186270450
 H         7.5912551383       -2.7201446410      -20.5490700133
 H         8.2072923741       -5.5746126848      -20.0155585804
 H         8.1592108327       -6.5596795328      -18.4950752033
 H         9.6301379811       -5.8699668430      -19.1868515004
 H        10.9104995187       -3.9687822306      -19.7109690530
 H        10.3086024150       -2.4667604333      -20.2356407983
 H         9.3189425792       -3.7532936941      -20.5243112086
 H        10.2387598414       -3.5030596415      -16.5599394141
 H        10.1988358202       -1.7709729965      -16.9661049930
 H        11.3041941569       -3.0295923625      -17.5970285150
 H         2.3623113647       -3.3716080911      -20.3282945418
 H         2.3467723925       -3.5567991972      -18.6294289633
 H         3.5852859710       -4.3606922441      -19.4785986924
 H         3.1618917266       -1.2484198836      -20.9826311831
 H         4.0930182670       -0.1202742807      -19.9587906534
 H         2.4631725823       -0.4789057444      -19.4875462191
 H         3.1779947450        0.5927330119      -13.5530338628
 H         2.8995588286        2.3830514077      -13.9219955836
 H         4.1963882498        1.8602117997      -12.7875268952
 H         5.2599113403        3.4301195847      -14.6492998715
 H         3.9037845108        3.1806803091      -15.6734775190
 H         5.5042501464        2.8350156528      -16.2464781398
 H        10.3772619294       -2.9881389494      -10.9156303920
 H         8.9565333796       -1.9882618449      -10.2534516463
 H        10.5026499205       -1.4152210395      -10.2658186932
 H        10.7963141442       -0.9861357026      -14.1100069989
 H        11.6246237981       -2.0632780827      -13.0532276693
 H        11.4383953351       -0.4061070982      -12.4623708343
 H         5.4328602647       -5.6638025194      -10.1877167509
 H         6.7997313985       -4.8614977695      -10.6477855025
 H         6.3570816191       -6.5666759339      -11.2711001757
 H         3.6769559554       -6.5810194744      -12.1840934418
 H         5.0892211075       -7.1384216740      -12.9479703218
 H         4.1677185178       -5.9691333284      -13.7802696619
 H         0.4478099824       -1.5273524233      -10.2956268092
 H        -0.1552531368       -2.9635208269       -9.6778350148
 H        -1.1398317701       -1.6692047699       -9.9482385256
 H        -1.3556143271       -4.6455787095      -11.4425734965
 H        -2.0554996227       -3.9284508371      -12.8934295748
 H        -2.5054887097       -3.3946105699      -11.1572661360
 H        -2.3491311813        4.4481660200      -11.0989520468
 H        -2.7967575854        4.9833848261      -12.7956816778
 H        -1.5059436962        3.6861551694      -12.4724112210
 H        -5.4801821472        2.9265477750      -10.5043686065
 H        -5.2755067516        4.3735742420      -11.5419358631
 H        -4.3914415548        4.2815831205      -10.1755163297
 H        -7.0022949370       -2.7743843934      -12.2450888925
 H        -6.1508823575       -1.6435366756      -13.2738088064
 H        -7.6621107135       -2.2501851453      -13.9132290484
 H       -10.0632864717       -1.7503905851      -11.8772031996
 H        -9.6268121369       -1.5439481362      -13.6350931362
 H        -9.8885899467       -0.1164403346      -12.4713186807
 H        -7.2325752991        2.3980827888       -6.2028374473
 H        -6.2996446237        0.9321263062       -6.5209452780
 H        -6.6696066958        1.3814110408       -4.8528175148
 H        -7.6417566476       -0.9110253224       -4.4677854749
 H        -7.3649157262       -1.3816359166       -6.1897345208
 H        -9.0019599657       -1.6071939675       -5.3734653268
 H       -15.0748947909        1.8356900413       -0.9147099953
 H       -14.9301947829        2.2582998959       -2.7065089675
 H       -13.4673590090        2.2591934571       -1.5110384519
 H       -11.9602807474        0.2055475746       -1.0970205607
 H       -12.7884348516       -1.3857270326       -1.1107042866
 H       -13.4384579536       -0.0284996603       -0.1764060633
 H       -20.4806127998       -3.4637134963       -2.6038964835
 H       -18.8540146633       -3.6569464501       -2.9699668419
 H       -19.8017108453       -2.1674937142       -3.4821488426
 H       -21.3542843792       -2.0076549038       -1.0850313074
 H       -20.5728575812       -0.4986268953       -1.2317036223
 H       -20.5318307421       -1.3052205761        0.3041456028
 H       -17.7492427539       -7.2716500129        1.6204641173
 H       -17.6761776353       -7.0819725260        3.2389370454
 H       -16.5866247335       -8.2213466614        2.6068683795
 H       -14.7709666195       -6.6952705846        3.8702626173
 H       -15.7247675646       -5.3039802610        4.2526493991
 H       -14.4165006494       -5.1642810585        3.2164989695
 Na      -15.4625808578       -2.9249945508       -0.1278232829
 Na        7.0556203788       -2.5666904409      -15.7771362597
