232

 C       -14.8252469327       -7.5687681517        0.5184784425
 C       -15.0649822785       -6.1956153888        1.0436688874
 O       -14.4741646262       -5.2798546033        0.5963219557
 C       -16.0753674193       -5.9352938672        2.2562526653
 C       -16.8760073848       -4.6301980372        1.8844093002
 O       -16.2199345067       -3.6302015723        1.8464794538
 C       -18.4119519641       -4.6755626875        1.8866125144
 C       -19.1283482899       -3.4741167815        1.2064400980
 C       -18.6627218713       -3.2715764214       -0.2797444235
 O       -17.7617087118       -3.9723099086       -0.6946745625
 C       -19.2647216143       -2.2153993458       -1.2654932251
 C       -18.1061304104       -1.1421998685       -1.5986343110
 O       -17.8103200368       -0.2494164803       -0.8066937006
 C       -17.4872964625       -1.0711288989       -3.1214293468
 C       -16.2231018355       -0.2261604630       -3.2919413737
 C       -15.0793138993       -0.5878113708       -2.3567099392
 O       -14.9560934121       -1.6319993918       -1.7736321974
 C       -13.8950859549        0.4821364121       -2.2196513422
 C       -13.1136629685        0.6565901541       -3.5767779927
 O       -13.8095567982        0.9019481524       -4.5501537775
 C       -11.6415799101        0.8375769840       -3.5988159590
 C       -10.9003385110        0.8993572137       -4.9236389710
 C        -9.3663003948        1.1886683787       -4.8016351384
 O        -8.9486747797        1.8587212486       -3.8760944064
 C        -8.3651113029        0.5746428839       -5.8873553643
 C        -8.9886982450        0.6459038396       -7.4126964234
 O        -9.7927831513        1.4897518770       -7.6598598611
 C        -8.3278577901       -0.3796096472       -8.4435171578
 C        -8.7074333662       -0.1578370714       -9.8666246849
 C        -7.8711671938       -1.0854182381      -10.7948334299
 O        -7.2289274524       -1.9784221227      -10.3013286258
 C        -7.9254414812       -0.8743362906      -12.3482194907
 C        -7.5543133588        0.5788870293      -12.6659803036
 O        -8.3791532737        1.4224426387      -12.3635162222
 C        -6.1013857995        0.9957999421      -13.2883097573
 C        -5.8184546022        2.4920723058      -13.4357202257
 C        -4.3037071824        2.6682711123      -13.3168546944
 O        -3.6301940282        2.2606094715      -14.2066240639
 C        -3.6857470869        3.1187055410      -11.8840832630
 C        -3.3486150234        1.5829653272      -11.4672834253
 O        -4.0339638692        0.9996937582      -10.6501928338
 C        -2.2095728477        0.7256948540      -12.2923518262
 C        -2.3767982974       -0.7874340800      -12.2145966624
 C        -0.9638880920       -1.3882784415      -12.4943570687
 O        -0.4037047484       -0.9768457581      -13.4946025720
 C        -0.5067470200       -2.7497757564      -11.7528206476
 C         0.6802239000       -3.4154066460      -12.3926153967
 O         0.5987812508       -4.6244579171      -12.6866796086
 C         1.9849728445       -2.6666339652      -12.8060934113
 C         3.1770340527       -3.6558966165      -13.1370118051
 C         4.2676977357       -3.8484833750      -12.0257854811
 O         4.6025553366       -3.0128920406      -11.1852162624
 C         5.2519128139       -5.2190920523      -12.3247824923
 C         6.2693198074       -4.8268173727      -13.4938410354
 O         5.8488073443       -4.2424673423      -14.4869426741
 C         7.7969050242       -5.1154408928      -13.2928680602
 C         8.7001358924       -4.1139011436      -12.5807381457
 C         8.9870405558       -2.8583638629      -13.2274783390
 O         9.0084625566       -2.7220673090      -14.4844309854
 C         9.5835281840       -1.7798883892      -12.3663820243
 C         8.3800737767       -0.5997681368      -12.4176330186
 O         7.5478902772       -0.7321555214      -11.4818273713
 C         8.3251854040        0.4544730336      -13.5426873196
 C         7.0403715441        1.2606094840      -13.4726655899
 C         5.9015488690        0.6046526415      -14.3763999274
 O         6.0859667832       -0.5879909122      -14.6624708284
 C         4.6990052883        1.4678105873      -14.8605824546
 C         3.9730743873        0.5826034392      -15.9537702294
 O         3.6152875630        1.1362781094      -16.9721785329
 C         3.3439860384       -0.8486698344      -15.6379294154
 C         3.0502174719       -1.5734891912      -16.8825312270
 C         4.1966855338       -2.0740889041      -17.7031790340
 O         5.2460322398       -2.4690780946      -17.2604687076
 C         3.9445264299       -2.2684617558      -19.2439330039
 C         5.3988750576       -2.4859987940      -19.8506575947
 O         5.8111963641       -3.5108516511      -20.3025001950
 C         6.2788357396       -1.2839159939      -20.0780373071
 C         7.7259335721       -1.6926076427      -20.1522274830
 C         8.2985025613       -2.0638646120      -18.7249172342
 O         7.8241691216       -1.4397019622      -17.7683029960
 C         9.4354895497       -3.1562367498      -18.5552921647
 C         8.5950364490       -4.4440094187      -18.0694661997
 O         7.8542948894       -4.4873567998      -17.1055109844
 C         8.5863250483       -5.6854271927      -18.8444451445
 C        10.2009829829       -3.3866533339      -19.8862279131
 C        10.2683446525       -2.6809165364      -17.3333218164
 C         3.0529294085       -3.5260465329      -19.4717465805
 C         3.1680419634       -1.0212837752      -19.8817647119
 C         3.6873587439        1.6112795755      -13.6604184680
 C         5.1753086035        2.8210339071      -15.4365714943
 C         9.7463174148       -2.1339334467      -10.9134500930
 C        10.7672046568       -1.1646699517      -13.2501741561
 C         6.0376965497       -5.7356328815      -11.0441052521
 C         4.3109771336       -6.2990742314      -12.8299675752
 C        -0.1532150793       -2.2658251768      -10.3372520476
 C        -1.7470596853       -3.7586761469      -11.7021211704
 C        -2.4685311222        3.9841442406      -12.0629837211
 C        -4.6325219356        3.7588890654      -10.9287936895
 C        -7.0081114687       -2.0204859045      -12.9312082082
 C        -9.4061790939       -1.0354362329      -12.8556881689
 C        -7.0739959950        1.4072570182       -5.7510829780
 C        -8.1823812916       -0.8604939967       -5.4799023032
 C       -14.3905978756        1.8603755585       -1.8949200648
 C       -13.0051810271       -0.1122318759       -1.0276162382
 C       -19.6617160753       -2.9066320166       -2.5944763216
 C       -20.4802470551       -1.4183583507       -0.6633066089
 C       -17.0045936757       -7.1881862692        2.3304413009
 C       -15.1240151370       -5.7825883906        3.5279793322
 H       -14.2212243913       -7.5611603576       -0.4039434988
 H       -15.7190800184       -7.9468298930        0.1176186967
 H       -14.2893697010       -8.2254725488        1.1506735778
 H       -18.6565892290       -4.7457165223        2.9733979568
 H       -18.7159449963       -5.6221873145        1.5545701056
 H       -19.1153737351       -2.5082118936        1.7299849175
 H       -20.1872401125       -3.7703162932        0.9248609909
 H       -18.2359289802       -0.7339487987       -3.8482600301
 H       -17.1826543226       -2.1798316089       -3.3372655920
 H       -16.4969143391        0.8226506457       -3.1541969517
 H       -15.8943137460       -0.2236941873       -4.3437672125
 H       -11.1316142292        0.1661971151       -2.9045991515
 H       -11.5370716021        1.8568199878       -3.1488765324
 H       -11.3394422352        1.5833585067       -5.6155013427
 H       -10.9030612570        0.0243349426       -5.5101152278
 H        -8.6255467360       -1.3605192291       -8.0884492493
 H        -7.2721548697       -0.3519452491       -8.1311848196
 H        -8.5802316842        0.9237311721      -10.1370339522
 H        -9.8031256610       -0.4019780947       -9.9982848463
 H        -5.9536520445        0.4458104405      -14.2214802147
 H        -5.3209652163        0.6347457069      -12.5726093919
 H        -6.3287015175        3.0889259426      -12.7069477165
 H        -6.0883868575        2.6591201565      -14.4775043377
 H        -1.2861994938        1.0978740564      -11.9047483177
 H        -2.3821051524        1.0285091087      -13.3523620220
 H        -3.0940620880       -1.1815156896      -12.9326644784
 H        -2.7505348135       -1.0272544035      -11.2328673978
 H         2.1682457501       -1.8617098750      -12.1413478423
 H         1.7469869334       -2.1761988392      -13.7700166221
 H         3.6675834938       -3.1172203129      -13.9186926875
 H         2.6060460293       -4.5670942679      -13.2876164773
 H         8.1104796475       -5.2053052859      -14.3104745072
 H         8.0516030675       -6.0691094252      -12.8152354390
 H         9.7168628246       -4.5682493912      -12.8136983277
 H         8.4564984153       -4.1056044987      -11.4893261383
 H         8.6078923192        0.0251552121      -14.4456281446
 H         9.0618526871        1.1794612217      -13.3727557469
 H         7.0512832100        2.2726593946      -13.8631149345
 H         6.6250926893        1.2593171011      -12.3922921375
 H         2.4880020645       -0.6082360010      -15.0485571706
 H         4.1119024052       -1.4312011252      -15.0121822489
 H         2.3072423578       -0.9818004300      -17.4400679194
 H         2.4856955086       -2.4577627699      -16.5672599285
 H         6.1800703970       -0.3909902659      -19.4549612918
 H         5.8955807098       -0.8668133465      -21.0320154880
 H         8.2653585576       -0.7664166718      -20.3941947245
 H         7.7780135010       -2.5499485376      -20.8222233546
 H         7.9068836322       -5.6643363977      -19.6644642344
 H         8.2519761000       -6.4197670275      -18.0621823059
 H         9.5853240236       -5.9249297732      -19.3103043431
 H        11.0150956940       -4.0832887372      -19.6134017049
 H        10.7327250000       -2.5142798862      -20.2882209805
 H         9.6344076760       -3.7432020226      -20.7334563036
 H         9.9752040848       -3.2691692572      -16.4356456312
 H        10.2163797173       -1.5916500550      -17.2388421719
 H        11.3318997178       -3.0689255930      -17.3584999166
 H         2.5802039186       -3.5184536961      -20.4291295309
 H         2.2167265942       -3.4540581456      -18.7177293101
 H         3.5006160668       -4.4469620285      -19.2342916783
 H         3.2211125841       -1.2432535798      -20.9042679647
 H         3.5709918055       -0.0497324158      -19.6373643937
 H         2.0932325314       -1.0503212041      -19.5571106330
 H         3.3982397522        0.6011976325      -13.4748602279
 H         2.8299028713        2.2153062339      -13.9326088561
 H         4.1524537396        2.0047982604      -12.7474723036
 H         5.2723180040        3.5952984068      -14.6654393528
 H         4.6675227389        3.2856804748      -16.2857053496
 H         6.2448521725        2.6032118040      -15.8195125027
 H        10.0789528487       -3.1517441615      -10.7813210815
 H         8.9501053276       -1.8592628403      -10.2738375726
 H        10.5692526399       -1.6235218460      -10.3556071509
 H        10.4054996528       -0.8391508728      -14.2148468863
 H        11.5516839521       -1.9101939492      -13.4086223517
 H        11.2006120282       -0.3939859796      -12.7642499150
 H         5.3490905123       -5.8738223436      -10.1690585672
 H         6.7347118165       -5.0827998111      -10.6153385711
 H         6.3780642312       -6.7064790777      -11.2509028895
 H         3.5929272460       -6.5529843014      -12.0857418595
 H         4.9319042553       -7.1823309762      -12.9669522251
 H         3.8199291439       -6.0407344620      -13.8170815572
 H         0.6650387415       -1.5956043660      -10.4072501702
 H         0.1938508953       -3.0233995481       -9.6612670701
 H        -0.8536511349       -1.6708289342       -9.8118237446
 H        -1.3205367995       -4.6238386514      -11.2053937083
 H        -2.0335379177       -3.9629079117      -12.6670796804
 H        -2.4488852386       -3.4473309622      -10.9809387768
 H        -2.1044139216        4.4218207791      -11.1044511938
 H        -2.6569515760        4.7848911916      -12.7651635260
 H        -1.6512971275        3.2757077419      -12.4750809045
 H        -5.4385311395        3.0243810069      -10.5204991432
 H        -5.1134604761        4.6346123106      -11.3701401342
 H        -4.1336467711        4.2315814653      -10.1180553233
 H        -6.6041936301       -2.5532413149      -12.0888771473
 H        -6.2369173917       -1.6260745306      -13.5233704881
 H        -7.6270094618       -2.5676592098      -13.6844691755
 H        -9.6873424448       -2.0856523749      -12.6135896217
 H        -9.3326114881       -1.0232281560      -13.9641234917
 H       -10.1479067839       -0.3671647429      -12.3844406824
 H        -7.1882464787        2.2697159682       -6.4009236596
 H        -6.1225848188        0.8704234390       -5.9610897796
 H        -6.9899421924        1.7005400645       -4.6990284895
 H        -7.9628889617       -0.8116882873       -4.4077424852
 H        -7.4269568952       -1.4582312017       -6.0406760784
 H        -9.1340056964       -1.3447347157       -5.5533707018
 H       -14.9551244351        1.8051134760       -0.9628558344
 H       -15.0101121057        2.2061727770       -2.6764987607
 H       -13.3872276465        2.3911661557       -1.6605614697
 H       -12.0570489804        0.4405574565       -0.9642331940
 H       -12.6567937404       -1.1179906149       -1.2363116495
 H       -13.6150764335       -0.1093467024       -0.1317709126
 H       -20.5778835967       -3.4961645478       -2.5544941586
 H       -18.8720355492       -3.6834062828       -2.8776927571
 H       -19.7923767232       -2.1665089042       -3.3308578199
 H       -21.4177512525       -1.8109275116       -0.5162674646
 H       -20.6985418902       -0.5949045373       -1.3586670905
 H       -20.1741390119       -0.8570380155        0.1870941263
 H       -17.4889953677       -7.3018746024        1.3968947812
 H       -17.9106659233       -7.1360732897        2.9785773838
 H       -16.5741650618       -8.1174594517        2.7055962892
 H       -14.6151852006       -6.6854303872        3.8937311442
 H       -15.6602309038       -5.4077058236        4.3954347651
 H       -14.3479843833       -5.0281489776        3.3335778670
 Na      -15.4332160474       -3.1627627505       -0.2029492253
 Na        6.9279151098       -2.7311175315      -15.6590183471
