232

 C       -14.5049027444       -7.4542444649        0.7102904896
 C       -14.9004584690       -6.0557498563        1.1232252644
 O       -14.2464763668       -5.1448819780        0.5983711714
 C       -16.0629184611       -5.8666646194        2.1729783270
 C       -16.8661014970       -4.6099738052        1.8960092556
 O       -16.3456618773       -3.5017866935        2.0211098818
 C       -18.4135374639       -4.5866618628        1.6999837291
 C       -18.8855386234       -3.3135176444        1.1662023017
 C       -18.4940614775       -3.1112881801       -0.2906085912
 O       -17.7405881868       -3.8973929585       -0.8649995316
 C       -19.2705802123       -2.1536974832       -1.1271086897
 C       -18.0896295543       -1.0612451606       -1.6482618453
 O       -17.8498609852       -0.1793454568       -0.9041746136
 C       -17.4063406553       -1.3081729013       -3.0170780377
 C       -16.2774648991       -0.2533365890       -3.1629346182
 C       -15.0921499058       -0.5413135729       -2.2377984427
 O       -15.0665114632       -1.6120349147       -1.5718954194
 C       -13.9648232100        0.5083918537       -2.1358180896
 C       -13.2477480541        0.6904465899       -3.5332804594
 O       -13.8469082763        0.7026484251       -4.5832278819
 C       -11.7052323639        0.6731558953       -3.5741521909
 C       -11.0499257483        0.7854643379       -5.0041918700
 C        -9.5090725052        1.1962575059       -4.8368978430
 O        -9.1468850318        1.7671004174       -3.8233462327
 C        -8.4885231729        0.6278543121       -5.9500043180
 C        -9.0178350462        0.7288028424       -7.3854290628
 O        -9.7727656882        1.6357797484       -7.6810684636
 C        -8.4693321895       -0.4189931832       -8.4040824678
 C        -8.7568605668       -0.1146075912       -9.8567211294
 C        -7.8516998672       -1.0779687427      -10.7334484990
 O        -7.1095143167       -1.8724349278      -10.2073019155
 C        -7.8283348645       -0.9314005407      -12.3860005529
 C        -7.4251994156        0.6418147389      -12.6509453170
 O        -8.0081794061        1.5000399805      -12.0379284605
 C        -6.1352186876        0.8363800556      -13.4898800952
 C        -5.8532456372        2.3441962653      -13.5168122012
 C        -4.3706774998        2.5736347466      -13.4076420635
 O        -3.6403282021        2.3577724272      -14.3686497146
 C        -3.6969311109        2.8947631631      -12.0677772122
 C        -3.4435747495        1.4878224719      -11.4980271784
 O        -4.3236608466        0.9378309221      -10.9192338253
 C        -2.1311298843        0.7936634648      -11.8868667317
 C        -2.2752923080       -0.7022363945      -11.9171912702
 C        -0.9830096270       -1.3662794540      -12.3990899320
 O        -0.4274899009       -1.0448896991      -13.4009502764
 C        -0.5059491791       -2.6758383190      -11.6458278347
 C         0.7114233122       -3.3632592342      -12.2437695061
 O         0.6299712714       -4.5154598886      -12.5215192050
 C         2.0392771107       -2.5786077326      -12.5924246601
 C         3.1220832773       -3.5201358786      -13.2908442729
 C         4.1127509624       -3.9855385498      -12.2101251750
 O         4.3146215497       -3.2244474701      -11.2955609697
 C         4.9466525766       -5.2387199121      -12.3355948516
 C         5.9238121210       -4.8614344758      -13.5465043886
 O         5.4932250779       -4.1136711238      -14.4377331284
 C         7.4688189847       -5.1179121690      -13.5258972308
 C         8.2309381327       -4.0728635347      -12.5298742892
 C         8.7949427255       -2.8098736961      -13.2383425548
 O         8.7012628267       -2.7061938136      -14.4578981442
 C         9.5737470261       -1.7139646724      -12.4014788351
 C         8.2832992447       -0.6640032009      -12.3357815386
 O         7.5060696135       -0.4997294728      -11.4419645359
 C         8.3506411202        0.4154751045      -13.4559675404
 C         7.0294298565        1.2357210082      -13.4510857119
 C         5.9409377421        0.4696634173      -14.3510743186
 O         6.1547979495       -0.6684093664      -14.7167510714
 C         4.7869414338        1.4582487988      -14.9543405074
 C         4.0463257454        0.6931533908      -16.0631445362
 O         3.9646410266        1.2023353748      -17.1851193232
 C         3.4033045973       -0.6238972051      -15.6792331948
 C         3.0330686247       -1.7275197943      -16.8036178695
 C         4.2563100123       -2.1883787926      -17.7106208557
 O         5.3016519378       -2.6434158647      -17.2806656192
 C         3.9861132235       -2.3944613827      -19.2538756975
 C         5.4013410000       -2.5123385033      -19.9630494338
 O         5.7752039240       -3.6303122948      -20.4052329352
 C         6.2985296525       -1.3365580474      -20.1854860728
 C         7.8606541087       -1.6023497971      -20.2137626433
 C         8.2950213409       -2.0133278287      -18.8219967290
 O         7.9239832097       -1.5458564422      -17.7907430548
 C         9.4980006520       -3.1751579544      -18.5780511923
 C         8.6526442635       -4.4122977281      -18.1353512268
 O         8.0088768440       -4.4948753224      -17.0951666038
 C         8.7554904759       -5.7329417064      -18.9068763832
 C        10.3961722736       -3.5079995386      -19.7793002546
 C        10.3679498916       -2.6916508284      -17.4027520679
 C         3.3325635612       -3.7727549968      -19.4464119591
 C         3.1718825522       -1.1527128738      -19.8260876941
 C         3.9509994428        1.8258959923      -13.6082548123
 C         5.4195806615        2.7937281330      -15.4797237622
 C        10.0636025160       -2.0540156160      -11.0861728151
 C        10.7751606697       -1.0333464840      -13.1475515318
 C         5.5644000703       -5.5465095861      -10.9915563380
 C         4.2051540613       -6.4506381667      -12.8963688526
 C         0.1000410929       -2.2529560915      -10.3123194377
 C        -1.6616829853       -3.6232168728      -11.2920653504
 C        -2.3074796563        3.6190213308      -12.3381600601
 C        -4.5739322313        3.7286318868      -10.9874908144
 C        -6.8763293967       -1.8967745737      -12.9818461363
 C        -9.2392632557       -1.0937200686      -13.1542649314
 C        -7.0659959474        1.3277014883       -5.8604225108
 C        -8.2673081122       -0.9395594869       -5.4471093790
 C       -14.5815305432        2.0301161761       -1.7925433767
 C       -12.9199380312        0.2125846162       -0.9734819907
 C       -19.9835647097       -2.9448866578       -2.3076260002
 C       -20.3581779479       -1.2914438010       -0.4367885321
 C       -16.9537150646       -7.1455852406        2.3310680594
 C       -15.3165662438       -5.7388509907        3.4872558499
 H       -13.5574775003       -7.3905834198        0.2103484927
 H       -15.1114983607       -7.9827859223       -0.0420798185
 H       -14.2054203421       -8.0835940727        1.5715008478
 H       -18.8662375186       -4.6946549272        2.6627330406
 H       -18.7217823579       -5.5382239740        1.1994195620
 H       -18.4744377241       -2.4815756632        1.7712964985
 H       -19.9494678762       -3.3267348183        1.1520055074
 H       -18.2208376251       -1.0612629054       -3.7383502508
 H       -17.1048212828       -2.2897190046       -3.1910000463
 H       -16.6979822663        0.7890435783       -3.1389891053
 H       -15.9182784486       -0.3508118213       -4.1938076169
 H       -11.4097344139       -0.3122044060       -3.1827716202
 H       -11.2282979096        1.4467310015       -2.9846865525
 H       -11.3878569258        1.6494739267       -5.6166211809
 H       -11.1804892526        0.0144678407       -5.7924403394
 H        -8.9399446993       -1.3414678357       -8.0626181829
 H        -7.4103301259       -0.6286061483       -8.2859620143
 H        -8.6671155361        0.8938408096      -10.2719992728
 H        -9.7214253405       -0.4857209378      -10.1925646347
 H        -6.3736242380        0.4603464174      -14.4954091126
 H        -5.4399969334        0.1508556231      -13.0319032907
 H        -6.3793514408        2.7258339205      -12.6025719892
 H        -6.3371741998        2.6235097624      -14.4891670372
 H        -1.4373340926        1.0677110532      -11.0611770671
 H        -1.8758509191        1.2123610843      -12.8309512624
 H        -2.9531626369       -1.0552173824      -12.7390498174
 H        -2.7348290668       -0.9874481987      -10.9208070356
 H         2.4195177362       -2.1848078332      -11.5905716438
 H         1.9320114455       -1.6831974278      -13.1881399175
 H         3.8115575152       -2.8000081843      -13.7885397725
 H         2.5723350577       -4.2664156701      -13.8191404726
 H         7.8481477321       -5.1023343942      -14.5748253738
 H         7.6327913751       -6.1109879037      -13.1248428155
 H         9.0300941526       -4.5743455527      -12.0058822087
 H         7.4788883065       -3.7577481054      -11.8249009778
 H         8.5793911175       -0.0710512793      -14.4793776898
 H         9.1171673502        1.2490845119      -13.4453326464
 H         7.0040427421        2.2951088579      -13.7642364416
 H         6.5761065539        1.1982856621      -12.5168681575
 H         2.4759401543       -0.1414892678      -15.2519738135
 H         3.8715614909       -1.0750551163      -14.8580868291
 H         2.2116002289       -1.3646817955      -17.4095893759
 H         2.5501767709       -2.4898137566      -16.1432078378
 H         6.1051135823       -0.5616974430      -19.4580001986
 H         5.9879226166       -0.8362471989      -21.0915721500
 H         8.3360567990       -0.6177205342      -20.2826969022
 H         8.0855670411       -2.4174205983      -20.9282802220
 H         7.8364032921       -5.7901112948      -19.5897472261
 H         8.5898230297       -6.4671325915      -18.1411539318
 H         9.6049760929       -5.8712233136      -19.5255198463
 H        11.1839912845       -4.2859671581      -19.6134438085
 H        10.9070099740       -2.6190516495      -20.0796609460
 H         9.8286632440       -3.6922130963      -20.7203418021
 H         9.8451777299       -2.2657597408      -16.5491754412
 H        11.0934304474       -1.9879230089      -17.9001331060
 H        10.9381159278       -3.4961279903      -16.9439363634
 H         3.5362959770       -4.0471414228      -20.5017768843
 H         2.3044223115       -3.8824122506      -19.2127163681
 H         3.8319968305       -4.5099912939      -18.7684258145
 H         3.4200344689       -0.8037422743      -20.8689168006
 H         3.2917265896       -0.3429016803      -19.0962432852
 H         2.1702058716       -1.5208508775      -19.7586327998
 H         3.9327656398        1.0437982872      -12.8489899214
 H         2.9389111734        2.1461628967      -13.8678242538
 H         4.5510156421        2.5724221179      -13.1257955307
 H         5.3003854769        3.6998528314      -14.8687256329
 H         4.9941615989        3.0397048137      -16.4974970331
 H         6.4204599687        2.6599649733      -15.7975454665
 H        10.9606052135       -2.6190569133      -10.9652818958
 H         9.2783755465       -2.5271943513      -10.4272771960
 H        10.2294227364       -1.2079785751      -10.4941962212
 H        10.7159348593       -0.8449322936      -14.2186789462
 H        11.5795127636       -1.6670107410      -12.8531492705
 H        11.0502647797        0.0188774389      -12.6927163924
 H         4.8070091036       -5.9938179179      -10.4055289153
 H         5.8183653012       -4.5799191094      -10.4565071959
 H         6.4300277788       -6.2481848505      -11.0411736394
 H         3.1810649798       -6.5151600274      -12.3852931347
 H         4.7970401879       -7.3951240261      -12.7630731243
 H         4.0320380691       -6.2821747007      -13.9390563033
 H         0.8589698754       -1.4095466715      -10.2737981001
 H         0.6391560131       -3.1008499989       -9.8429927978
 H        -0.6603058344       -1.9086365406       -9.5588860096
 H        -1.3530259689       -4.3372088121      -10.5646519785
 H        -2.0441737472       -3.9986558657      -12.2673521557
 H        -2.3666320862       -3.0928065576      -10.6428427570
 H        -1.6381512866        3.3652901068      -11.5690052925
 H        -2.5363304533        4.6991599144      -12.2544569446
 H        -1.8683695956        3.3232206605      -13.2306340021
 H        -5.5545308101        3.4232495217      -10.8536811849
 H        -4.5523671517        4.8111327085      -11.1516026945
 H        -4.0836989693        3.6576360590       -9.9834294229
 H        -5.9298905599       -1.8001199936      -12.4577872189
 H        -6.8371525520       -1.6271557387      -14.0686769644
 H        -7.2986415864       -2.8689572016      -13.0507322274
 H        -9.4038014272       -2.0830490971      -13.5381743256
 H        -9.2056225819       -0.4523049226      -14.0032723285
 H       -10.0261038663       -0.8026360406      -12.4968182808
 H        -7.0057255876        2.1234824400       -6.5990411675
 H        -6.2619471405        0.5792547998       -5.8795483764
 H        -6.9461849419        1.7032700976       -4.8390914766
 H        -8.0621040266       -0.9548238276       -4.4121438672
 H        -7.4424985241       -1.3115237239       -6.0338789016
 H        -9.1541647348       -1.5558494906       -5.6075019165
 H       -15.1791117621        1.9145780038       -0.9067941311
 H       -15.3083640890        2.2066353655       -2.6177609363
 H       -13.8376927965        2.7137758632       -1.7475089461
 H       -12.3830762115        1.0973524276       -0.6909499872
 H       -11.9998005871       -0.3896128050       -1.2181745327
 H       -13.5947798324       -0.1833664079       -0.2092754122
 H       -20.6297983929       -3.7663079672       -2.0370035494
 H       -19.2536772555       -3.4141504069       -2.9139518231
 H       -20.5167974598       -2.1460669257       -2.9403138405
 H       -20.9896466807       -1.8266609383        0.2764283471
 H       -21.1813541954       -1.0421846674       -1.0789472916
 H       -19.9700737191       -0.3490288618        0.0304618995
 H       -17.6703982836       -7.3982311476        1.5047370625
 H       -17.6261469484       -7.0280066430        3.1285931601
 H       -16.4294197838       -7.9911903688        2.7727108666
 H       -14.4884196974       -6.4601243192        3.6251773901
 H       -15.9456033271       -5.8990636113        4.3920529270
 H       -14.8616468518       -4.7653245852        3.5821718550
 Na      -15.4345945684       -3.5967898478       -0.4157506950
 Na        6.8790885903       -2.7672627006      -15.7803073874
