232

 C       -14.3545733203       -7.5114904901        0.9089118781
 C       -14.8260020684       -6.0087451991        1.1301150299
 O       -14.3153081711       -5.0766642990        0.6221507979
 C       -15.9680003644       -5.8891578137        2.2183917378
 C       -16.8221102230       -4.6098653487        1.9277891723
 O       -16.3101216363       -3.5205404677        1.9641111609
 C       -18.4125069798       -4.6257109468        1.7331105355
 C       -18.7520633863       -3.2650110309        1.2084565355
 C       -18.5268088445       -3.1588962683       -0.3577194162
 O       -17.6302375975       -3.7283154110       -0.8904167328
 C       -19.3250927513       -2.0256304757       -1.1443357554
 C       -18.2176245739       -1.1020907412       -1.7010511941
 O       -17.8680219920       -0.1793475369       -0.9622397220
 C       -17.3270969063       -1.4307878745       -2.9650566468
 C       -16.2752366006       -0.2774256627       -3.0791856947
 C       -15.0765950634       -0.5226360823       -2.1548151822
 O       -14.9430648356       -1.4717808133       -1.4304944166
 C       -14.0130291424        0.5770657054       -2.1119562411
 C       -13.2022329066        0.5539146371       -3.5926314123
 O       -13.9015130649        0.6231824097       -4.5817307219
 C       -11.6652406370        0.5647571445       -3.5966538668
 C       -11.1103737363        0.8328982019       -4.9607164659
 C        -9.5973257531        1.0930190919       -4.8669296569
 O        -9.2164300452        1.7427094378       -3.9125069901
 C        -8.5552555734        0.5118918383       -5.9028362438
 C        -9.0966371733        0.6546213371       -7.3953574244
 O        -9.6960999365        1.6014495002       -7.7684365680
 C        -8.5764914038       -0.4337379689       -8.3444791528
 C        -8.8257311357       -0.1622257372       -9.8741650737
 C        -7.8867478826       -1.0461722460      -10.7416552973
 O        -7.0970518273       -1.8186052297      -10.3071958278
 C        -7.8147168824       -0.8528514176      -12.3046113108
 C        -7.2925749056        0.6195727718      -12.5836663399
 O        -7.8284837534        1.5370886372      -12.0111054217
 C        -6.2194828622        0.8789359494      -13.5969353379
 C        -5.8210935350        2.3765899515      -13.4883722929
 C        -4.3196768549        2.5758539568      -13.5709919641
 O        -3.6602997743        2.5085291118      -14.5490837640
 C        -3.6194676418        2.8629786179      -12.0724045622
 C        -3.5064603938        1.4134985643      -11.4632345348
 O        -4.4385026673        0.8430848448      -10.9588241589
 C        -2.0369914968        0.7279196026      -11.6631433354
 C        -2.1877591708       -0.8140507628      -11.6960835628
 C        -0.9657804738       -1.4144765112      -12.3706190806
 O        -0.3549566731       -1.0513135182      -13.3312372313
 C        -0.4132312782       -2.6617238803      -11.4628538321
 C         0.7230379518       -3.3939557323      -12.2616036871
 O         0.6500921952       -4.6155747490      -12.5420020856
 C         1.9490905651       -2.5601391655      -12.5860833317
 C         2.9542505639       -3.5141578682      -13.2985862226
 C         3.9710574674       -3.9107642748      -12.2174905724
 O         4.1932983584       -3.3236338901      -11.1695816942
 C         4.8607524625       -5.2390071483      -12.4476228089
 C         5.8470970144       -4.6639172236      -13.5419065080
 O         5.4150496288       -4.1093313984      -14.5873029675
 C         7.3149311823       -4.9589519938      -13.3435107019
 C         8.0189202537       -3.9642402071      -12.4874299681
 C         8.7579549222       -2.8279889404      -13.1930558985
 O         8.6816127042       -2.6225079367      -14.4223594240
 C         9.5272763308       -1.6919115497      -12.3346179643
 C         8.4755790644       -0.5678663469      -12.3203222087
 O         7.6518041195       -0.6528855082      -11.3716592391
 C         8.3537023464        0.4899772684      -13.4122402210
 C         7.0186754419        1.1675775003      -13.4411946844
 C         6.0815206513        0.5889457210      -14.5202956064
 O         6.1321660696       -0.6390044871      -14.7249342111
 C         4.9409221517        1.4939698436      -14.9787037938
 C         4.0619755384        0.6336255759      -16.1526279612
 O         4.1269357082        1.1117157250      -17.2871976686
 C         3.3720645684       -0.6517862768      -15.7385389930
 C         3.1211135779       -1.6712009202      -16.9120772797
 C         4.2103217552       -2.2229289774      -17.7456181302
 O         5.2034308637       -2.6331735332      -17.2610076032
 C         4.0381502156       -2.4574081129      -19.2185438905
 C         5.4734545904       -2.5559471105      -19.9117972457
 O         5.8081667161       -3.6092152094      -20.4444365588
 C         6.3014211339       -1.2879576847      -20.1106192770
 C         7.8172219571       -1.6951672745      -20.1765936545
 C         8.3950939960       -2.0581343523      -18.7798940233
 O         7.8220337583       -1.5858538952      -17.8362777737
 C         9.5474887602       -3.1115612497      -18.6074489290
 C         8.7665358322       -4.4836088074      -18.0408896783
 O         8.0582626704       -4.4297824495      -17.0473463578
 C         8.8127445973       -5.7279818425      -19.0078811342
 C        10.2879421539       -3.4408657298      -19.8997095624
 C        10.4153724369       -2.7938521328      -17.3401134584
 C         3.4019542435       -3.8282464885      -19.4171177047
 C         3.2691387167       -1.2291202879      -19.8992606367
 C         4.0505543188        1.8421597008      -13.7742707820
 C         5.4437503150        2.7629184097      -15.5844125161
 C        10.0214201251       -2.1407528424      -10.9212329950
 C        10.6761491234       -1.1507055563      -13.2205595698
 C         5.4567217940       -5.5106074886      -11.0001967180
 C         4.0336692201       -6.5474283743      -12.9947997346
 C         0.1561910876       -1.9955048786      -10.0611455839
 C        -1.6001728077       -3.6291154817      -11.2192978127
 C        -2.3264762107        3.6339546693      -12.4362726311
 C        -4.4963994988        3.6675001120      -11.1580101878
 C        -6.8164034096       -1.8722591673      -12.8691193286
 C        -9.2232005464       -1.0745792890      -13.0213521905
 C        -7.2624274845        1.3155798455       -5.8473178870
 C        -8.3417889836       -0.9304185462       -5.4668061958
 C       -14.7132342231        1.9298856562       -1.8171438735
 C       -13.0260766093        0.3128434464       -0.9589312990
 C       -20.0541119541       -2.8077875585       -2.2822986166
 C       -20.3012666000       -1.2110540807       -0.3144344862
 C       -16.9286179897       -7.1028370830        2.1672043492
 C       -15.2640770432       -5.6008704357        3.5852162186
 H       -13.3280270511       -7.6127832284        0.4408990155
 H       -14.9566099754       -7.9597193698        0.1299618268
 H       -14.2627026055       -8.1915272827        1.7710014507
 H       -19.0629542238       -5.0148555290        2.5800747735
 H       -18.5215286000       -5.4218573333        0.9601617718
 H       -18.0688401630       -2.5108379087        1.5331780671
 H       -19.8037677795       -3.0484943579        1.4346004948
 H       -17.9750801738       -1.4489032560       -3.7992121488
 H       -16.8542307635       -2.4112212750       -2.9130367997
 H       -16.7735831777        0.7391776358       -2.9573891482
 H       -15.9287439525       -0.2609941760       -4.1191245791
 H       -11.2137739742       -0.4035014365       -3.2789564311
 H       -11.3803140908        1.3607592336       -2.9269130534
 H       -11.5577379666        1.6642774419       -5.6239253476
 H       -11.2474498388       -0.0044500375       -5.6692960099
 H        -8.8886678539       -1.4361836287       -7.9547499429
 H        -7.4711536929       -0.4790669155       -8.2571425526
 H        -8.6649155979        0.7764773605      -10.3277802694
 H        -9.7552595833       -0.4417434931      -10.2484193247
 H        -6.5903638578        0.6319327201      -14.6191140724
 H        -5.4955438387        0.1561067958      -13.2990995438
 H        -6.2919458864        2.7061604744      -12.6224843859
 H        -6.2887616912        2.8241750351      -14.3802974183
 H        -1.5136288285        1.0077486917      -10.7417487893
 H        -1.5949487485        1.1205438607      -12.6135098183
 H        -3.0283693115       -1.1466688189      -12.2870670587
 H        -2.3411469600       -1.1584973631      -10.6474803783
 H         2.4444552982       -2.2517743018      -11.6096360732
 H         1.7359638965       -1.6020392664      -13.0975978597
 H         3.6954872472       -2.9541681578      -13.9129689247
 H         2.4100422359       -4.3926658141      -13.6629352658
 H         7.8862569720       -4.9177043330      -14.3078010353
 H         7.3666194275       -5.9932081482      -12.9447574316
 H         8.7502745894       -4.4841707996      -11.9183446202
 H         7.3646466913       -3.4535582693      -11.7691962417
 H         8.6338814694        0.0967720457      -14.4478164692
 H         8.9591766942        1.4035723545      -13.4058884660
 H         7.0626320944        2.2437305983      -13.6954713674
 H         6.4174065094        1.0879063206      -12.6010334508
 H         2.4786885636       -0.3833084923      -15.1655217523
 H         4.0415241452       -1.1478232909      -15.0248740002
 H         2.3102022420       -1.3895928733      -17.5042887475
 H         2.6891411897       -2.4463627039      -16.2549416476
 H         6.0483019979       -0.4405513790      -19.4245778627
 H         6.0983225516       -0.8447158602      -21.0858289440
 H         8.3337808770       -0.8444063112      -20.4675572692
 H         7.7518108374       -2.5966434828      -20.8136627454
 H         8.0083881465       -5.6228536547      -19.6934372910
 H         8.6224856987       -6.6511939336      -18.4610329717
 H         9.7184797190       -5.7917806980      -19.5718316150
 H        11.1348953076       -4.1625763365      -19.6585863422
 H        10.7308141382       -2.5896695544      -20.2733075847
 H         9.7338799735       -3.7638380969      -20.7409101791
 H         9.8643980898       -2.0748470576      -16.7759797352
 H        11.3509511951       -2.4053193086      -17.6164635057
 H        10.5917571446       -3.5953750576      -16.6419892762
 H         3.4656666423       -4.1410889818      -20.4527777023
 H         2.3376393394       -3.7841946493      -19.0519023694
 H         3.8337718245       -4.5667529330      -18.7722879951
 H         3.5320413749       -1.1648517486      -20.9444777488
 H         3.6149373711       -0.3275487144      -19.3910190395
 H         2.1481732847       -1.4343805297      -19.7752738361
 H         3.8291474438        0.9318679252      -13.2172901787
 H         3.0774886380        2.2191035320      -14.2132518843
 H         4.5711699927        2.4391100315      -13.0083399049
 H         5.5308621993        3.5671922016      -14.9603746969
 H         4.6659488550        3.0096541367      -16.3021827364
 H         6.2428615904        2.6906949430      -16.2899186248
 H        11.0464507004       -2.5085906813      -10.9257721936
 H         9.4595362926       -2.9669546312      -10.4243644416
 H        10.0191846738       -1.4024253951      -10.0786823482
 H        10.3432947903       -1.0052945004      -14.2837393000
 H        11.6479164321       -1.7116084462      -13.0786636681
 H        10.8559762010       -0.1139677185      -12.9326841343
 H         4.7046130427       -6.1023580479      -10.3817617249
 H         5.5409240930       -4.5070722386      -10.5009041981
 H         6.4554341311       -5.9749069881      -10.9566748705
 H         3.1196168698       -6.5526117600      -12.4167050724
 H         4.5730365455       -7.4696388739      -12.9815565428
 H         3.7336812165       -6.3410769545      -14.0251747310
 H         0.7333632972       -1.0334306118      -10.1201496753
 H         0.7678357063       -2.5740682461       -9.3563873443
 H        -0.7517446781       -1.6628655336       -9.5084446351
 H        -1.2665655793       -4.4331732568      -10.5306761505
 H        -1.9474763494       -3.9152038968      -12.2150890163
 H        -2.3428528772       -3.2008825102      -10.5138749684
 H        -1.5207620933        3.0768582186      -12.0716555969
 H        -2.3138464866        4.6601962824      -12.0981090723
 H        -2.2001888549        3.4608214540      -13.5213010666
 H        -5.5430497925        3.2760079819      -11.2151464055
 H        -4.5447055874        4.6873675769      -11.4563670199
 H        -4.2747816198        3.6692981949      -10.1371182810
 H        -5.8339095786       -1.4849205065      -12.7529152595
 H        -7.1075899643       -2.2566903386      -13.8254009261
 H        -6.9401283989       -2.8065615282      -12.2136388523
 H        -9.3576035953       -2.1553579357      -13.1399326987
 H        -9.1877787891       -0.6443011789      -13.9993315516
 H       -10.0203837675       -0.6391661122      -12.4717021636
 H        -7.5141214403        2.1643191370       -6.3938924391
 H        -6.3825973687        0.7160640790       -6.1764941449
 H        -6.9723221564        1.5924950344       -4.8414658696
 H        -7.9849836878       -1.0017998146       -4.4765968796
 H        -7.6241521685       -1.3670181350       -6.2416270021
 H        -9.3079096895       -1.4215016286       -5.5152818742
 H       -15.3189072170        1.7568209646       -0.9251729691
 H       -15.3548383718        2.1776420601       -2.6399591819
 H       -13.9185410530        2.7253526930       -1.7466343871
 H       -12.2004073270        0.9889026664       -0.7766135478
 H       -12.4008959376       -0.5312620832       -1.3082549068
 H       -13.7010909292        0.0308207513       -0.1806097149
 H       -20.5412565220       -3.5781544338       -1.7932144501
 H       -19.3334976496       -3.3880800222       -2.9036989968
 H       -20.7424671830       -2.2506385881       -2.9129897557
 H       -20.9172527304       -1.8788907051        0.2133797989
 H       -21.1769050524       -0.6887465527       -0.8477850702
 H       -19.8167056013       -0.4578472062        0.4047809025
 H       -17.4738331543       -7.0858077487        1.2287497928
 H       -17.6795586115       -7.1269744273        2.8888976323
 H       -16.4753934806       -8.0722856879        2.3960004155
 H       -14.4037621930       -6.2550708022        3.7961603026
 H       -15.9156376791       -5.7919090148        4.4132953168
 H       -14.8989464909       -4.6207545664        3.6542033014
 Na      -15.4917131128       -3.6243823285       -0.5305276772
 Na        6.9236883445       -2.7241729416      -15.9324708594
