232

 C       -13.7223443959       -7.3217901735        1.4788289566
 C       -14.5842495871       -6.0381420384        1.2318201548
 O       -14.3382176269       -5.3439196434        0.2975098918
 C       -15.8335646978       -5.8664185920        2.2534220527
 C       -16.5268403663       -4.5285741716        1.8753413584
 O       -15.9110188225       -3.5281894212        1.6172268977
 C       -18.1189358444       -4.5721277462        1.7135676359
 C       -18.7748794661       -3.3262251475        1.1871167194
 C       -18.6921447958       -3.0744008348       -0.3103077210
 O       -17.9802299006       -3.8006805334       -0.9517250811
 C       -19.4266382937       -1.8535782965       -1.0199000642
 C       -18.2689538831       -0.8961482121       -1.5863663867
 O       -18.0385187778        0.2017624928       -1.1103811447
 C       -17.3830680838       -1.4940170209       -2.7359824013
 C       -16.1356980399       -0.7030742337       -3.1164946229
 C       -14.9824695762       -0.5374750039       -2.0277469907
 O       -14.7778558946       -1.4275091477       -1.2154848123
 C       -14.0052943690        0.6448672397       -2.0351176634
 C       -13.3404265226        0.4022226444       -3.5021761915
 O       -14.0738757799        0.4106681998       -4.4734429837
 C       -11.7707821171        0.4817372454       -3.5958353634
 C       -11.3143098381        0.5856739783       -5.0893203776
 C        -9.8224829770        1.0605184705       -4.9446799345
 O        -9.4817824872        1.8013459751       -4.0327521998
 C        -8.7433333098        0.4356959392       -5.9272874660
 C        -9.2647190736        0.5896867755       -7.3966533800
 O        -9.8897292875        1.4840078141       -7.8376154783
 C        -8.8807474676       -0.6944745493       -8.3123916568
 C        -8.8197353010       -0.3433112680       -9.7643473772
 C        -7.7498018761       -1.0836852673      -10.6239955870
 O        -6.9659160318       -1.7992771794      -10.1024731414
 C        -7.6791325710       -0.7653964375      -12.1209673270
 C        -7.1211519587        0.7460569113      -12.4562192175
 O        -7.6267923911        1.6436440408      -11.8315290043
 C        -6.3251362953        0.9834072103      -13.7396475045
 C        -5.7970625855        2.3992433297      -13.9117770740
 C        -4.2540065823        2.6961822173      -13.7956686851
 O        -3.6025799265        2.8668381283      -14.7666842035
 C        -3.5889471072        2.9376596632      -12.3656377752
 C        -3.5444732686        1.4591665036      -11.6962316319
 O        -4.5181307619        0.8551216385      -11.3880745534
 C        -2.1601417837        0.7165755631      -11.5367780612
 C        -2.4167132274       -0.7475138926      -11.2429569863
 C        -1.1188067343       -1.4791831294      -11.8035356256
 O        -0.6196601293       -1.0754618460      -12.7958242126
 C        -0.4789232830       -2.6709292044      -11.1274167928
 C         0.5619654325       -3.4011141868      -12.0678047914
 O         0.6320594563       -4.6037743697      -12.2884280461
 C         1.6588751921       -2.4670167410      -12.8622179805
 C         2.9004068001       -3.2915587709      -13.2588946679
 C         3.7624247438       -3.9832426393      -12.1586050147
 O         3.7302003054       -3.5978335367      -11.0103861321
 C         4.6836937828       -5.1271533101      -12.5766083581
 C         5.7487905552       -4.7001210798      -13.5645082577
 O         5.4243404258       -4.1154038410      -14.6147268306
 C         7.2904857194       -4.8152944349      -13.2511824337
 C         7.6919429438       -3.6570859793      -12.3047947761
 C         8.7382450262       -2.7749658707      -12.9807956114
 O         8.8106099007       -2.5887829620      -14.2337249471
 C         9.6050991952       -1.7419095240      -12.2564450989
 C         8.5636214346       -0.4559841859      -12.1442341143
 O         7.8240025262       -0.5361994007      -11.1568437390
 C         8.4270182669        0.6315002041      -13.2326660960
 C         7.0335711797        1.2098400830      -13.3770401170
 C         6.2169891220        0.5536078592      -14.6304179349
 O         6.6339696070       -0.5516400225      -14.9696509060
 C         5.0245241534        1.3116508270      -15.3134843288
 C         4.3759026891        0.4408361005      -16.3952724772
 O         4.6694982676        0.7210963807      -17.5768636540
 C         3.4569187772       -0.7984722881      -15.9726599066
 C         2.8855156243       -1.3578352483      -17.2407037661
 C         4.0466932156       -2.1653110647      -17.9208925890
 O         4.9757229315       -2.5839632631      -17.2992332030
 C         3.9925312461       -2.5100457179      -19.4393042931
 C         5.4336135825       -2.6580959307      -20.0046336868
 O         5.8389928838       -3.7945536511      -20.2675976515
 C         6.2533888792       -1.3330366338      -20.1157037091
 C         7.8164505193       -1.5857511539      -20.1120386582
 C         8.3673078379       -2.0173685303      -18.7107033994
 O         8.0132900622       -1.5477749230      -17.6783840448
 C         9.5248289426       -3.2472395497      -18.5679683456
 C         8.8137029379       -4.5247278755      -18.1837108210
 O         8.2155812331       -4.6157435650      -17.1079124226
 C         8.8804572623       -5.7830701258      -19.1047209327
 C        10.3315303935       -3.3174421076      -19.8890913259
 C        10.4935641409       -2.7008235274      -17.4154798588
 C         3.2293975513       -3.8828893030      -19.5040481242
 C         3.3016859216       -1.4163270818      -20.3001189484
 C         3.9255261253        1.7872487912      -14.3016689551
 C         5.6142343329        2.5919019457      -15.9739189860
 C        10.1676128378       -2.1589668723      -10.7763472131
 C        10.8628679288       -1.4396675181      -13.0260040191
 C         5.2986673005       -5.8334356333      -11.3433386035
 C         3.7915186367       -6.2273788337      -13.3245287918
 C         0.4008855492       -2.1723579031       -9.8652089794
 C        -1.3940130919       -3.7018646206      -10.4792879182
 C        -2.1851609300        3.5341968863      -12.5923169351
 C        -4.4969159323        3.6808512950      -11.4495955181
 C        -6.7796685224       -1.8986518501      -12.8332363318
 C        -9.1679376708       -0.8873690037      -12.7143754906
 C        -7.4117887734        1.1791308557       -5.8840686501
 C        -8.5420297466       -1.0439530204       -5.4934897650
 C       -14.7010849951        2.0164641842       -2.1702315213
 C       -13.0979157994        0.6383789662       -0.8729962270
 C       -20.2126059712       -2.4320033157       -2.2785186594
 C       -20.3644294727       -1.0601715951       -0.2076155952
 C       -16.7962220404       -7.0617839864        2.2649102036
 C       -15.3881761012       -5.7073467798        3.7213309569
 H       -12.7441544502       -7.0386939965        1.0968991402
 H       -13.9346838565       -8.2949522578        1.0740747978
 H       -13.5622672206       -7.5014355388        2.5510716968
 H       -18.5359018662       -4.7914187246        2.6524162410
 H       -18.3594717355       -5.4398487216        1.0830647824
 H       -18.3936528427       -2.3465966742        1.5542756394
 H       -19.8272697789       -3.5335551662        1.3601752351
 H       -18.1056081264       -1.5363948288       -3.6041686702
 H       -17.1677957718       -2.5428756616       -2.5965967947
 H       -16.4460184020        0.2202988728       -3.6617389839
 H       -15.7422687785       -1.3887639728       -3.8547197665
 H       -11.3492016131       -0.4338479976       -3.1666491912
 H       -11.4568553896        1.3580244279       -3.0412515073
 H       -11.9716672324        1.2813019879       -5.6257645069
 H       -11.3695774650       -0.3672689469       -5.6127265128
 H        -9.5412862442       -1.5204495032       -8.0782787622
 H        -7.8661842343       -0.9838805577       -8.0763596166
 H        -8.6066774749        0.7445593858      -10.0002354822
 H        -9.8299908520       -0.4329094589      -10.2421939822
 H        -7.0704624282        0.6983232852      -14.5213120184
 H        -5.4925990337        0.3052047658      -13.8062753073
 H        -6.2987552261        3.0580166062      -13.1157293649
 H        -6.0967817732        2.9284783535      -14.9027422214
 H        -1.6660642026        1.1426072147      -10.6651190217
 H        -1.5994567783        0.7430740446      -12.4252242964
 H        -3.2583953623       -0.9890912899      -11.9245638393
 H        -2.6089123998       -0.9923335624      -10.1468865220
 H         2.0827171516       -1.5588281311      -12.3959327859
 H         1.2543897274       -2.1071695025      -13.7808859457
 H         3.5919012078       -2.5632222180      -13.7147592887
 H         2.6123028720       -4.1367520575      -13.8331158964
 H         7.9242041553       -4.8237570620      -14.1513586783
 H         7.4259085447       -5.7513050643      -12.7751069545
 H         7.9751372212       -3.9753523212      -11.2770747368
 H         6.8322225941       -2.9748121643      -12.0944455146
 H         8.5726925594        0.1742450450      -14.2606878204
 H         9.1502364661        1.4636409109      -13.1583570513
 H         6.8462755570        2.3111866289      -13.6730721782
 H         6.5235339447        1.0703905781      -12.4396876751
 H         2.7495432693       -0.4701935955      -15.1666465149
 H         4.1488086760       -1.4297917088      -15.4823131717
 H         2.3351001839       -0.5540785727      -17.7189970262
 H         2.0636689671       -2.1359053245      -17.0155734373
 H         6.0746711442       -0.7341840359      -19.2240356177
 H         5.9946200154       -0.6919064772      -20.9271159706
 H         8.2845885141       -0.6052382990      -20.1972743811
 H         8.0132887942       -2.4333193752      -20.8160090599
 H         8.7692252541       -5.4127429871      -20.1675319298
 H         8.0071080704       -6.4694497407      -18.9747608819
 H         9.7932672446       -6.3632065171      -19.0005064421
 H        11.2572685717       -4.0271794656      -20.0193015656
 H        10.5986097286       -2.3591014442      -20.2173056576
 H         9.6850759552       -3.7623872661      -20.6984347035
 H         9.8716153538       -2.1203436532      -16.6732155225
 H        11.3745717784       -2.0767818363      -17.7555583415
 H        11.0661326396       -3.5666140565      -16.9676532618
 H         3.0652104405       -4.0312227042      -20.5678012423
 H         2.3073265799       -3.9251040564      -18.9575457400
 H         3.8425166100       -4.7458114861      -19.2412625789
 H         3.1661167286       -1.7103360150      -21.3385742898
 H         3.9673533939       -0.5989386162      -20.2797525930
 H         2.3533014120       -1.2790101379      -19.8267257652
 H         3.5624937813        0.9859715496      -13.7332945215
 H         3.1251912589        2.3223173476      -14.8033211485
 H         4.4703922970        2.3754632157      -13.6123140255
 H         6.6822718565        2.6278686281      -15.7197883499
 H         5.1733969112        3.5952038838      -15.5805459693
 H         5.4327473471        2.6810335807      -17.0588302052
 H        10.7983745011       -2.9748653967      -10.6961689420
 H         9.4277705592       -2.5320610850      -10.0351040451
 H        10.7389899320       -1.3471836874      -10.3937782487
 H        10.6354581926       -0.9905010632      -13.9682184020
 H        11.3057080774       -2.3682800548      -13.3055616602
 H        11.6108030159       -0.7889234512      -12.5550063679
 H         4.6076695331       -5.7888640117      -10.5502722303
 H         6.3253519350       -5.5748182300      -11.1467843962
 H         5.3958404315       -6.8491443780      -11.6054162138
 H         2.8332641538       -6.3697461120      -12.7526520043
 H         4.4339121400       -7.1103378422      -13.4642731207
 H         3.5541275269       -5.9437370239      -14.3420150289
 H         1.2764907422       -1.5232835054       -9.9767578298
 H         0.8144760578       -3.0488318715       -9.4272763599
 H        -0.2500967060       -1.8107919017       -9.0790569925
 H        -0.7874334348       -4.3821392188       -9.9290827087
 H        -2.1096645508       -4.2130164334      -11.1224579851
 H        -1.9272305620       -3.0919501758       -9.7267970701
 H        -1.5185607655        3.2586573612      -11.8078651441
 H        -2.3461438429        4.6422891471      -12.6544986346
 H        -1.8368417181        3.0822947444      -13.5173386753
 H        -5.1095022737        2.9650376136      -10.8861663343
 H        -5.2340106714        4.3346688423      -11.9438562736
 H        -3.9559558710        4.2223101172      -10.6508146681
 H        -5.7271386771       -1.7652320804      -12.6680940510
 H        -7.0703175449       -1.7103929794      -13.8804221691
 H        -7.0483185664       -2.9307059836      -12.5826980665
 H        -9.7589030179       -1.5635482527      -12.0509593018
 H        -9.2860955611       -1.1275521285      -13.7798319457
 H        -9.5103597919        0.1355059348      -12.6349878165
 H        -7.6107853913        2.1933280066       -5.6328820330
 H        -6.8564162422        0.9638729505       -6.8422328763
 H        -6.7251391646        0.7808119046       -5.1165631954
 H        -8.3898815493       -1.0321853690       -4.4723726923
 H        -7.6441976254       -1.4898319104       -5.9742401051
 H        -9.4621350901       -1.5766286545       -5.7089017985
 H       -15.4055527654        2.1368720267       -1.3607286991
 H       -15.0940937744        2.0982776872       -3.1786047693
 H       -13.9413109389        2.7543002779       -2.1904042335
 H       -12.3686679155        1.4082280721       -1.1317302252
 H       -12.4786789512       -0.2849248862       -0.8820395877
 H       -13.6463578933        0.9506134664       -0.0106190916
 H       -21.1800112871       -2.8694939657       -2.0698876194
 H       -19.5595752186       -3.1190992234       -2.8301347748
 H       -20.3030574803       -1.5719371196       -3.0424430349
 H       -21.3101360357       -1.4713941640       -0.1760769973
 H       -20.4876348784       -0.0605315804       -0.6403841046
 H       -20.0525213521       -0.8760691588        0.8408680523
 H       -17.1259768076       -7.4658247165        1.2417375492
 H       -17.6738171695       -6.8551398979        2.7837193134
 H       -16.3443685505       -7.9946626949        2.7306621186
 H       -15.0043478051       -6.7087704302        4.0895720692
 H       -16.2292832823       -5.4820113619        4.4169159065
 H       -14.5858412866       -5.0347161782        3.9308373723
 Na      -15.4705321899       -3.3952565550       -0.4953274084
 Na        7.0931945202       -2.8125203186      -15.8250901952
