232

 C       -13.5061866362       -7.1668213134        1.7234530126
 C       -14.5194526376       -6.1245239146        1.2990173662
 O       -14.4048768459       -5.5720866383        0.2099217902
 C       -15.7790866217       -5.8656415772        2.2713518853
 C       -16.5509879489       -4.5835310756        1.7842202699
 O       -15.9749385811       -3.4954765414        1.6540570151
 C       -18.1598932740       -4.5776124895        1.7864194321
 C       -18.7743895154       -3.2690393472        1.3270896419
 C       -18.6870415691       -3.0637081807       -0.3363445436
 O       -18.1070839785       -3.8565329917       -1.0014825971
 C       -19.3820841459       -1.8063305255       -1.0435480165
 C       -18.2037190915       -0.8405530821       -1.5490792819
 O       -18.0898816572        0.3259611658       -1.1515342643
 C       -17.3696051612       -1.4636757440       -2.7087957691
 C       -16.0749415100       -0.7176670002       -3.0701874792
 C       -15.0328552428       -0.5995244643       -1.9801959474
 O       -14.7782288548       -1.4005676167       -1.1318176873
 C       -14.0300704872        0.7776018690       -2.1749487120
 C       -13.3348231161        0.5547788008       -3.5590317373
 O       -14.0000245912        0.2961874280       -4.5495956091
 C       -11.8323033519        0.4595253101       -3.6274840882
 C       -11.2244755960        0.4659474141       -5.0204553560
 C        -9.8617068207        1.0660796180       -4.9414574663
 O        -9.5564391826        1.8808118067       -4.1052161509
 C        -8.7939755184        0.4068440487       -5.9278266711
 C        -9.3308434491        0.4516187663       -7.3899281095
 O       -10.0026262911        1.4171600915       -7.7380168057
 C        -8.9698907540       -0.7239950885       -8.3262317981
 C        -8.7314365134       -0.2933641039       -9.7857979286
 C        -7.7006165497       -1.0564096333      -10.5809366563
 O        -6.8302725749       -1.8054734576      -10.1570855615
 C        -7.7119723948       -0.6590878536      -12.2068911620
 C        -7.1645553060        0.7288591791      -12.4242539086
 O        -7.4747407226        1.7312079837      -11.7785955867
 C        -6.2291116698        0.8824158540      -13.6869478069
 C        -5.7703564805        2.3877245853      -13.8481248413
 C        -4.2965345009        2.6714818526      -13.8200836488
 O        -3.6393825197        2.8828779495      -14.8331483642
 C        -3.6384831170        2.8468423658      -12.3654962652
 C        -3.6779225841        1.4429496771      -11.8191564219
 O        -4.7630178533        0.9213171787      -11.5478417273
 C        -2.3113453105        0.7528115980      -11.6023199901
 C        -2.2859247257       -0.7507614356      -11.0543932178
 C        -1.1054216632       -1.4750767264      -11.6604075322
 O        -0.7660526204       -1.0298655547      -12.7639596551
 C        -0.3681364001       -2.7776910645      -10.9457795271
 C         0.6192196870       -3.4550879101      -11.9651383405
 O         0.6517124479       -4.6568158278      -12.2068003597
 C         1.5764471735       -2.5036303095      -12.7241919659
 C         2.8579020331       -3.1699214448      -13.2517038689
 C         3.6290362991       -3.9590211348      -12.1951251170
 O         3.6865473905       -3.7896380510      -11.0152579800
 C         4.5975772408       -5.2761459422      -12.7078664504
 C         5.7075512433       -4.7035354617      -13.5847625457
 O         5.4914783015       -4.0190739022      -14.6001637531
 C         7.2636238096       -4.8210578138      -13.1761963150
 C         7.7212837811       -3.5835069431      -12.3382122566
 C         8.7739554379       -2.6974823461      -12.9642779263
 O         8.9155427119       -2.6684406875      -14.1685252077
 C         9.6805305591       -1.6146109325      -12.1688543465
 C         8.6237226860       -0.3991368814      -12.0632743932
 O         7.8274028753       -0.3387650031      -11.1310040321
 C         8.4650303162        0.5137829970      -13.1984459951
 C         7.0602088684        1.0794171227      -13.3471462514
 C         6.2806847382        0.5308773137      -14.6370164023
 O         6.7028029384       -0.5146804691      -15.0845132281
 C         5.1990548687        1.3521086937      -15.2947841778
 C         4.5565381734        0.3391682222      -16.4757440165
 O         4.8319857249        0.5267216212      -17.6023328647
 C         3.4552616855       -0.6593022425      -16.1285721376
 C         2.9094390140       -1.4186677194      -17.3256857313
 C         3.9610382526       -2.2767176051      -17.9840999858
 O         4.9952557482       -2.5183689048      -17.4178191673
 C         3.8644034712       -2.5663087281      -19.6002910773
 C         5.4421814719       -2.7209640843      -20.0055624385
 O         5.8575733039       -3.8073108991      -20.1760345597
 C         6.2904162481       -1.4447018756      -20.0496666612
 C         7.8701190106       -1.5660533417      -20.0327853177
 C         8.4103169120       -2.0666434755      -18.7043231493
 O         7.9921287060       -1.5461665727      -17.6641110906
 C         9.4793182395       -3.1250719585      -18.6223103506
 C         8.7992291734       -4.4493748944      -18.2226136148
 O         8.2094790435       -4.5868954994      -17.1542842664
 C         8.9161950405       -5.6951420540      -19.1049614817
 C        10.3496730959       -3.3813677071      -19.8492122038
 C        10.4831665489       -2.7565830915      -17.4651510560
 C         3.1868039554       -3.9519647060      -19.6183358183
 C         3.1815603290       -1.3999958319      -20.4366695361
 C         3.9908065481        1.7870189131      -14.3300453092
 C         5.8330301759        2.5474472444      -15.9810865809
 C         9.9750731845       -2.1503031373      -10.7316993724
 C        10.9433729874       -1.2222325391      -13.0267775945
 C         5.0719265345       -5.8264214456      -11.3134614715
 C         3.7642448139       -6.3152123089      -13.4785251534
 C         0.6252971399       -2.2297938085       -9.8497794400
 C        -1.4493867208       -3.7049738499      -10.3105601000
 C        -2.2971107654        3.5785921667      -12.6280298507
 C        -4.4934695987        3.7868847524      -11.5248865689
 C        -6.7635888270       -1.7888317945      -12.8339244890
 C        -9.1140798332       -0.7981783302      -12.7414261283
 C        -7.4044452512        1.1175203478       -5.8830639390
 C        -8.6402192662       -1.0280208543       -5.4515268365
 C       -14.8500758039        2.0373956534       -2.2578199738
 C       -13.1117782042        0.7248552634       -0.8789869659
 C       -20.1674658094       -2.3673822642       -2.2909044272
 C       -20.3311665246       -1.0368199911       -0.0678729706
 C       -16.7060427516       -7.0443998438        2.1179692464
 C       -15.2835712224       -5.5804310385        3.7038976334
 H       -12.5466138077       -7.0395314235        1.1173087975
 H       -13.9093647771       -8.1507362832        1.4436732808
 H       -13.3014152841       -7.3630452342        2.7747725529
 H       -18.4621443389       -4.8240902202        2.8434751057
 H       -18.4784678944       -5.4176834991        1.1716462638
 H       -18.2263012196       -2.4435317326        1.6851447079
 H       -19.8534819575       -3.3108382644        1.5422431487
 H       -18.0667098416       -1.4973039235       -3.4784883121
 H       -17.1904284919       -2.5338504487       -2.5284444187
 H       -16.3680386075        0.2980485774       -3.3994669863
 H       -15.6003271636       -1.2097692260       -3.9215216925
 H       -11.5731236081       -0.4685748331       -3.0872404187
 H       -11.5112078553        1.3214374639       -3.0842494387
 H       -11.9343713023        1.1120327107       -5.6674060714
 H       -11.1769244208       -0.5428880065       -5.4753668051
 H        -9.8044696396       -1.4361074752       -8.2202124802
 H        -8.0456197451       -1.1572889818       -7.9210479300
 H        -8.5019704431        0.7745964890       -9.9190263413
 H        -9.6453446370       -0.3665807631      -10.3370186915
 H        -6.8265343764        0.5320457278      -14.5686400630
 H        -5.3195412597        0.3086350960      -13.6490732704
 H        -6.2368002995        3.1091735721      -13.1687840678
 H        -6.0736238758        2.8024760620      -14.8538107099
 H        -1.8547164378        1.3941235626      -10.8630097994
 H        -1.7890336542        0.7491015465      -12.5865755427
 H        -3.1648429582       -1.2151945156      -11.5536488170
 H        -2.2130490622       -0.9616495786       -9.9555716980
 H         1.8484073713       -1.6070614562      -12.1469167059
 H         1.1034412956       -2.0877281357      -13.6369372242
 H         3.5468959742       -2.3684593310      -13.5705564172
 H         2.6390792083       -3.9421026431      -13.9908125308
 H         7.8313846875       -4.9650476005      -14.1099381151
 H         7.4376920719       -5.7096694123      -12.5558267972
 H         8.0743473689       -3.9373665040      -11.4171509196
 H         6.8693503667       -2.9944803802      -11.9671718553
 H         8.7930130948        0.2043984032      -14.2581733000
 H         9.0938473639        1.4182939129      -12.9212184664
 H         6.9958155719        2.1571846124      -13.5607158246
 H         6.5912093061        0.9392060346      -12.4085821158
 H         2.7597142024       -0.1467128413      -15.5110593697
 H         3.9592849429       -1.3165034459      -15.4330367609
 H         2.3893668809       -0.7274363343      -17.9567009518
 H         2.0980489803       -2.1436529659      -17.0177846813
 H         6.0829601539       -0.6420168475      -19.3427000791
 H         6.0469240095       -1.0594525219      -21.0174590670
 H         8.2090117822       -0.5587429644      -19.9562374352
 H         8.1884289072       -2.2556464988      -20.8592947276
 H         8.8526979915       -5.4972486119      -20.1254442556
 H         8.0620725109       -6.3871008138      -18.8983767518
 H         9.8519409126       -6.2474460573      -18.8385697428
 H        10.9330278459       -4.2920198818      -19.6581561126
 H        11.0877213056       -2.6038924747      -20.1338952681
 H         9.8166497803       -3.7279747331      -20.7366703263
 H         9.8214125607       -2.7870437136      -16.5601186511
 H        11.0266840419       -1.8127653198      -17.4451754107
 H        11.3047032153       -3.5225284635      -17.4772036439
 H         3.1406062746       -4.3189100664      -20.6286856179
 H         2.1373744126       -3.9284266368      -19.1675939101
 H         3.7777593616       -4.6840268946      -19.1371890509
 H         3.4416134236       -1.4605960895      -21.4555665017
 H         3.6539564470       -0.5096116305      -20.0449055439
 H         2.0772880434       -1.5188661764      -20.2775060027
 H         3.9611460600        0.9694816858      -13.6617142779
 H         3.0204450478        1.9476628321      -14.8049941311
 H         4.3010612105        2.6600278298      -13.7549747292
 H         6.9019585279        2.3963832184      -16.1932358312
 H         5.7113461372        3.5075447802      -15.5065212627
 H         5.2393743075        2.6782819440      -16.9490751981
 H         9.9596732559       -3.2122141053      -10.6396555915
 H         9.1600157776       -2.0478161555      -10.1065046640
 H        10.9209199788       -1.8548602385      -10.2597039607
 H        10.6179683632       -0.8018923868      -14.0215033111
 H        11.4409299461       -2.1855984073      -13.4145738352
 H        11.6564865538       -0.5815024588      -12.6266984733
 H         4.1886587620       -5.8423229960      -10.6146803596
 H         5.9336303804       -5.2827267759      -11.0858952893
 H         5.4365251751       -6.8295261296      -11.3716793695
 H         2.7445246716       -6.2159334985      -13.1141092107
 H         4.1980376176       -7.3254371060      -13.3930841834
 H         3.7446486532       -6.0908550178      -14.6159255334
 H         1.4039219459       -1.5189218652      -10.2081407508
 H         1.2151199239       -2.9773298961       -9.2420618910
 H        -0.0118206159       -1.7369058286       -9.0797670496
 H        -0.9722847659       -4.5945996056       -9.8010218925
 H        -2.0908197824       -4.0877705221      -11.1105685286
 H        -2.0980152283       -3.0810483710       -9.6446668640
 H        -2.0024987884        3.9560527729      -11.6866270493
 H        -2.5840528119        4.3763008219      -13.2359315388
 H        -1.5160808548        2.9438282182      -13.0618720506
 H        -5.5192012016        3.4439344143      -11.1291596889
 H        -4.6853842426        4.6586755421      -12.1222429359
 H        -3.9667073769        4.0204386869      -10.6485793389
 H        -5.9471136713       -1.8342138618      -12.1211010070
 H        -6.3966133785       -1.5650897678      -13.8119891429
 H        -7.2491497660       -2.8222403822      -12.7880975924
 H        -9.5646879845       -1.7497639186      -12.4679553204
 H        -9.1000409842       -0.6275596708      -13.7993329411
 H        -9.6510973536        0.0544818686      -12.3988323719
 H        -7.6326421647        2.1701756298       -5.7802973073
 H        -6.7265800819        0.8007476692       -6.7183700432
 H        -6.8739648771        0.8947899612       -4.9327063760
 H        -8.5757400322       -1.0745305674       -4.3855477907
 H        -7.6573304888       -1.3532645684       -5.8266054252
 H        -9.4202816662       -1.6101902951       -5.8460194276
 H       -15.2479058697        2.2234081177       -1.2996049809
 H       -15.4492608674        2.1210480344       -3.0750593401
 H       -14.0354779619        2.8088918037       -2.4989681438
 H       -12.4780975872        1.6741314816       -0.8160298138
 H       -12.4532787906       -0.1325074409       -1.0365972462
 H       -13.7887400211        0.7261929752       -0.0135803595
 H       -21.1290644185       -2.8050227359       -2.0306152886
 H       -19.5282175848       -3.0274414347       -2.9802173540
 H       -20.3401012879       -1.5393918450       -2.9130694657
 H       -21.2369482177       -1.5666619711        0.3030987186
 H       -20.6482775719       -0.1022054421       -0.6249646929
 H       -19.8487262658       -0.6465919816        0.8429370470
 H       -17.1458835597       -7.1042955712        1.1390740043
 H       -17.5701515939       -7.0707131371        2.8306678507
 H       -16.1897912049       -8.0265601041        2.1365446389
 H       -14.7779244420       -6.4188376993        4.2589012649
 H       -16.1126258944       -5.2653172031        4.3515176128
 H       -14.5373666064       -4.7538031476        3.7327526956
 Na      -15.5328071424       -3.4809114747       -0.4329444629
 Na        7.0213257551       -2.9382622426      -15.8667646823
