232

 C       -13.3673272304       -7.0032267073        1.9060739141
 C       -14.5081929516       -6.1664853056        1.3262398529
 O       -14.5173187925       -5.6870171135        0.1543719271
 C       -15.7830303516       -5.7967141552        2.2052625760
 C       -16.6405805797       -4.5452967359        1.8500563961
 O       -16.0507560509       -3.4704317834        1.7188383342
 C       -18.1675107137       -4.4859656016        1.7291297130
 C       -18.7163201469       -3.1479232011        1.2633141636
 C       -18.7006491922       -3.0245369123       -0.2877075686
 O       -18.0963908721       -3.8942258466       -0.9295618998
 C       -19.2991919434       -1.8091275919       -0.9702766824
 C       -18.1856712378       -0.8740676167       -1.5484313029
 O       -18.1387740549        0.2488364825       -1.2005851438
 C       -17.3280349930       -1.4459881569       -2.6496778693
 C       -16.0746541417       -0.6364077168       -3.0014852741
 C       -15.0850676066       -0.5113430232       -1.9993286808
 O       -14.8036328780       -1.3276293725       -1.1066600065
 C       -14.1641161460        0.6960614810       -2.2041031445
 C       -13.3610763090        0.4348766963       -3.5960811517
 O       -13.9541054495        0.2886306016       -4.6279946173
 C       -11.8442435603        0.4821216095       -3.5491200452
 C       -11.2062239527        0.4110011315       -4.9122713523
 C        -9.8057632502        1.0220063399       -4.9562464066
 O        -9.5385768720        1.9727432742       -4.2679269266
 C        -8.7924745262        0.3479253644       -5.8792299808
 C        -9.3543411186        0.3561716933       -7.4185233133
 O       -10.1221536628        1.2813736387       -7.7232215888
 C        -8.9322878937       -0.7430867382       -8.3906991362
 C        -8.7128555828       -0.1330929604       -9.8313148708
 C        -7.6212874837       -0.9058350728      -10.6215852443
 O        -6.8510979826       -1.7284146891      -10.1013241785
 C        -7.6204465713       -0.6717743223      -12.1636674420
 C        -7.1144700210        0.7529168802      -12.4496877559
 O        -7.3998835280        1.6707963341      -11.7376453362
 C        -6.2210602656        0.9016415329      -13.7437407728
 C        -5.9211496639        2.4261615628      -13.9689589062
 C        -4.4373334225        2.7604850945      -13.9052368536
 O        -3.6811275501        2.8250876985      -14.8811190138
 C        -3.7382789722        2.9252459811      -12.4605069431
 C        -3.7114580197        1.4128883902      -11.7237853727
 O        -4.8043095654        0.8896822856      -11.5264059152
 C        -2.4013995196        0.6938324194      -11.5334935634
 C        -2.2598764289       -0.6742894499      -10.8010387211
 C        -1.0581551772       -1.4947020332      -11.5664440096
 O        -0.7075225661       -1.2246127289      -12.7264817415
 C        -0.3404094965       -2.6542579674      -10.8413304388
 C         0.6676573661       -3.4734201147      -11.9678805209
 O         0.5619241355       -4.6841397451      -12.0155408416
 C         1.5969492455       -2.5667299169      -12.6073265827
 C         2.8924823996       -3.2021489553      -13.3132176477
 C         3.5895594539       -4.0798157417      -12.2433981339
 O         3.4686271666       -3.7366758823      -11.1071029377
 C         4.5055904016       -5.3051195851      -12.6740815354
 C         5.7766794675       -4.5639875967      -13.5192712262
 O         5.4194716091       -4.0156939652      -14.5208704205
 C         7.2026609450       -4.7197619997      -13.0349329037
 C         7.7777483866       -3.5199764459      -12.2426124027
 C         8.8344710984       -2.6158017312      -13.1056618198
 O         8.9761411360       -2.7703479661      -14.2762659275
 C         9.5330276736       -1.6410345068      -12.1445100077
 C         8.6123701978       -0.3728695315      -11.9753089887
 O         7.9234391872       -0.2514167192      -11.0289903553
 C         8.5550142863        0.5490029513      -13.2482974080
 C         7.0447999844        1.1194864611      -13.3900094202
 C         6.3965453145        0.4404896666      -14.6825859130
 O         6.7347954474       -0.5977026049      -15.1672654650
 C         5.2588155690        1.2463445610      -15.4066008698
 C         4.6171923751        0.3983821136      -16.5755040911
 O         5.0891537323        0.3579591834      -17.6705657172
 C         3.4067904260       -0.5670167084      -16.1494863220
 C         2.9349861524       -1.4097977057      -17.3393372561
 C         4.0555526591       -2.0716425848      -18.1161213918
 O         5.0352129587       -2.5965448666      -17.5318945609
 C         3.9055933626       -2.5758573767      -19.5889719423
 C         5.4717929981       -2.8027991281      -19.9784854528
 O         6.0029271174       -3.9045625370      -20.1323195801
 C         6.2387875862       -1.4450066081      -20.0424473641
 C         7.7856419389       -1.5819184730      -20.0934230115
 C         8.3947926464       -2.0054666208      -18.6527737018
 O         7.8997268758       -1.5882502926      -17.6200971179
 C         9.5363152703       -3.2250406575      -18.6054677552
 C         8.7445313174       -4.5220386391      -18.1684528343
 O         8.1243640189       -4.4961600151      -17.1468407485
 C         8.9014176264       -5.6833499903      -19.1032245445
 C        10.4216630598       -3.3120949554      -19.9354772781
 C        10.4856099069       -2.8555066478      -17.4342169791
 C         3.1565946211       -3.9032738394      -19.8306900185
 C         3.1101940129       -1.5714540201      -20.4241078723
 C         4.1876530844        1.7249120209      -14.3717178247
 C         6.0040100982        2.4833982266      -16.0257716483
 C         9.8622947402       -2.0847965297      -10.7593437251
 C        10.8385671904       -1.1304993737      -12.8050996850
 C         4.9681575144       -6.0107207796      -11.3924898108
 C         3.7194167783       -6.2808729261      -13.6207346458
 C         0.6632888180       -2.2030898663       -9.7718467554
 C        -1.3777519969       -3.6331588821      -10.2897245525
 C        -2.2449069582        3.5144399084      -12.6039294364
 C        -4.5997120307        3.9314273167      -11.5722340174
 C        -6.7895448309       -1.7769979707      -12.8589091777
 C        -9.0696789518       -0.7232096778      -12.8192670888
 C        -7.4261175111        1.1378703602       -5.8506590037
 C        -8.6591128576       -1.1768539637       -5.3235538103
 C       -15.0300809449        2.0594809832       -2.2680987363
 C       -13.1040250953        0.8118400394       -0.9958295204
 C       -20.0973907969       -2.2570656818       -2.1204392004
 C       -20.2474447008       -1.0323197877        0.0348425790
 C       -16.5374345527       -7.1577905695        2.0517106251
 C       -15.2471986927       -5.4881408671        3.6142417759
 H       -12.4543344812       -7.0298740471        1.3098418921
 H       -13.8160286543       -8.0660527903        1.9508133818
 H       -13.1952600279       -6.9222566194        2.9879273108
 H       -18.5581789963       -4.6709525905        2.7993268326
 H       -18.3592393214       -5.4087206802        1.1531618968
 H       -18.0172923356       -2.3817638367        1.5865970967
 H       -19.7729209681       -3.0501899313        1.4945346525
 H       -17.9568268548       -1.6817168606       -3.4597811896
 H       -17.0809845824       -2.4638521765       -2.2719484019
 H       -16.4219381792        0.3394413354       -3.2699778124
 H       -15.5526152898       -1.0554315000       -3.8989924813
 H       -11.5663221675       -0.4094046445       -2.9800579648
 H       -11.6182433002        1.4107276577       -3.0023432762
 H       -11.8740578365        1.0253126336       -5.5641631034
 H       -11.2845723499       -0.6692345471       -5.2501052290
 H        -9.8886305584       -1.3021327489       -8.3506709532
 H        -8.0932781386       -1.3284808728       -7.9343192371
 H        -8.4782320200        0.8955303761       -9.7003863007
 H        -9.6203272281       -0.1003546639      -10.3749675089
 H        -6.7574553387        0.5483636533      -14.6163204150
 H        -5.2292733156        0.3835883699      -13.7355690281
 H        -6.4581400162        3.1382415646      -13.3977850373
 H        -6.2172725126        2.6782694107      -14.9409586138
 H        -1.6930129835        1.3705129205      -11.0060559155
 H        -2.1040457204        0.5225627739      -12.6350125288
 H        -3.1563449104       -1.2875200267      -10.7578253143
 H        -1.7671347117       -0.5737464678       -9.8716068416
 H         1.8081923796       -1.7901415563      -11.8829349304
 H         1.1865102066       -1.9749298124      -13.4930491001
 H         3.6472742576       -2.4320999711      -13.5034668214
 H         2.5582028997       -3.7615205637      -14.2370748098
 H         7.7182808566       -4.7798459398      -13.9988182989
 H         7.3861827716       -5.7132560673      -12.5297056385
 H         8.1224501660       -3.8592641580      -11.2806504371
 H         6.9886504507       -2.9097871437      -11.8769006009
 H         8.7252450961        0.0589651865      -14.1827636158
 H         9.3032341265        1.3803701978      -13.1781293395
 H         6.7313009097        2.1027796755      -13.3286003167
 H         6.4929654141        0.5800591491      -12.5867774736
 H         2.7007359797        0.1134990453      -15.7658293727
 H         3.7293899332       -1.1246974912      -15.2254182910
 H         2.4477497803       -0.6664048082      -18.0037829070
 H         2.2332290422       -2.1588692261      -17.1434885090
 H         6.0583430484       -0.7333963614      -19.2321125741
 H         5.8743343871       -0.9773820164      -20.9966295904
 H         8.2985692795       -0.6532444732      -20.3743631549
 H         7.8936651032       -2.4462805289      -20.6780729888
 H         8.7560083924       -5.4601508621      -20.1445605650
 H         8.2411898608       -6.4682887504      -18.8915986753
 H         9.9012477235       -6.0424550853      -18.8542982395
 H        10.9234961177       -4.1885881587      -19.9630641348
 H        11.2427416385       -2.5351070958      -20.0172358770
 H         9.8754630976       -3.3940911261      -20.8419213697
 H        10.0293904047       -3.2150203980      -16.5502295306
 H        10.4819852163       -1.7967965862      -17.2393557725
 H        11.5138258694       -3.0838040752      -17.6086816609
 H         3.3080092047       -4.2436519249      -20.8645403192
 H         2.0811360789       -3.7443565921      -19.6563999381
 H         3.5075174921       -4.7466802928      -19.2218608021
 H         3.6506172655       -1.5880366534      -21.3725425408
 H         3.1643285169       -0.5360324159      -20.0243258205
 H         2.1399571275       -2.0144352460      -20.5641633666
 H         4.0927723072        0.9272721866      -13.5713340432
 H         3.2251193085        1.9308896276      -14.8428042119
 H         4.5393787808        2.7030842913      -13.9479928891
 H         6.8281617670        2.1362228694      -16.6772631572
 H         6.3854511758        3.1164616448      -15.2788500645
 H         5.3365892213        3.0958262943      -16.5995821549
 H         9.5823261447       -3.1384754782      -10.5120612708
 H         9.2284487410       -1.7293226194      -10.0056681106
 H        10.9120079714       -2.0290719179      -10.5194794492
 H        10.7571795882       -0.7574108656      -13.8514871447
 H        11.5750326925       -1.9454384981      -12.9333160013
 H        11.2961647259       -0.3249067097      -12.1801707880
 H         4.1496406959       -6.6536601141      -11.0444680942
 H         5.3690013422       -5.2269949258      -10.7603965795
 H         5.8900950558       -6.6426799625      -11.5483907010
 H         2.6695120101       -6.2154029398      -13.3513918505
 H         4.1256857973       -7.3025754447      -13.5253973913
 H         3.8053004632       -5.9870400046      -14.6810191715
 H         1.3410098031       -1.4349219275      -10.1939546646
 H         1.3906893552       -2.9379159234       -9.3031902470
 H         0.1733849673       -1.7398558846       -8.8617949272
 H        -0.7955364370       -4.5680082939      -10.0080506111
 H        -1.9705280155       -3.9719544709      -11.1904342177
 H        -2.1334579725       -3.2115675366       -9.5784829427
 H        -2.2752378035        4.2160439583      -11.7705387624
 H        -2.1267730971        4.0106524330      -13.5193268674
 H        -1.4799572264        2.8001191798      -12.4448574194
 H        -5.6465896965        3.8713453362      -11.5011842334
 H        -4.4124162452        4.9444874333      -11.9078750329
 H        -4.2513045160        3.7784930301      -10.5594711539
 H        -5.9533824536       -2.0202004576      -12.1480627743
 H        -6.3719795065       -1.4106282400      -13.8093665599
 H        -7.3798266211       -2.6865394673      -12.8914943482
 H        -9.3809149156       -1.6864800438      -13.0494498885
 H        -8.8467746894       -0.1770136513      -13.7051991995
 H        -9.8488306650       -0.1045726008      -12.3952731928
 H        -7.5930871667        2.2228066834       -6.1440631344
 H        -6.6974062348        0.6061109684       -6.4175058672
 H        -7.1055543391        1.2493303276       -4.8037966186
 H        -8.6327045321       -1.2002439479       -4.1887552055
 H        -7.7276529191       -1.5272882340       -5.6204700499
 H        -9.4462773005       -1.7624433031       -5.7693047990
 H       -15.2947798832        2.3230056520       -1.2394133038
 H       -15.8007995982        2.1787120144       -3.0659594451
 H       -14.2812056497        2.7750981376       -2.6022416703
 H       -12.7447603976        1.8583256660       -1.0870388820
 H       -12.3045275959        0.0685513154       -1.0514302150
 H       -13.6722322902        0.8403320974       -0.0228081584
 H       -21.0126371563       -2.7397479219       -1.7311821661
 H       -19.5527531314       -2.8466724840       -2.8042686239
 H       -20.4176821325       -1.4158246669       -2.6766437774
 H       -20.9952606039       -1.6516808595        0.7344556978
 H       -20.8163780151       -0.3153331114       -0.5762683315
 H       -19.7394875349       -0.3936236130        0.7606396542
 H       -17.1159426126       -7.2994715480        1.1889424337
 H       -17.2664629546       -7.3139490967        2.9121275623
 H       -15.8999316353       -7.9876577964        1.9532860704
 H       -14.6945985969       -6.2222848532        4.1399426579
 H       -16.0835722037       -5.2011792247        4.2456856225
 H       -14.5809838629       -4.5781724021        3.6137881569
 Na      -15.6077021751       -3.5884603890       -0.4802015817
 Na        6.9998123964       -2.9556350177      -15.9683531520
