232

 C       -13.2103468525       -6.4427637344        1.8806664827
 C       -14.5124798645       -5.8994516123        1.2027682567
 O       -14.6981027615       -5.5473602301        0.0764478590
 C       -15.7603675443       -5.7896971321        2.2822328467
 C       -16.5234691882       -4.5797157965        1.8511979861
 O       -15.9614315826       -3.5222004507        1.6739853145
 C       -18.1041812950       -4.5859042166        1.8288859202
 C       -18.7024100098       -3.2133658764        1.3970637032
 C       -18.6629396823       -3.0425977301       -0.1190507913
 O       -17.8972209227       -3.7168116171       -0.7715504404
 C       -19.3417247625       -1.8132954590       -0.8170422808
 C       -18.2722994371       -1.0056579683       -1.6006947804
 O       -18.0333577226        0.1480058423       -1.2187133801
 C       -17.3336647594       -1.6277357772       -2.6274152888
 C       -16.2721333305       -0.6418708229       -3.0633014402
 C       -15.0877924200       -0.5396935404       -2.0510343731
 O       -15.0060920340       -1.3728707332       -1.1574563681
 C       -14.2295453077        0.7624480237       -2.1554007943
 C       -13.3988537835        0.6070449960       -3.4896244643
 O       -13.9997104422        0.2745304893       -4.4912876760
 C       -11.8362809598        0.6694864165       -3.4979824998
 C       -11.2132092137        0.3751565417       -4.9205144435
 C        -9.8443150718        0.9729297532       -5.0495558501
 O        -9.5966977569        2.0310456443       -4.5393983978
 C        -8.7693348826        0.1755453487       -5.8592386972
 C        -9.3984762345        0.2207767137       -7.2975213533
 O       -10.3214349310        0.9451723283       -7.5818920401
 C        -8.7220434690       -0.6599605850       -8.4537064364
 C        -8.5788437836        0.0339853316       -9.7706287307
 C        -7.6476808190       -0.7527829129      -10.5964216517
 O        -6.9050978520       -1.5942194213      -10.1478466595
 C        -7.5995312395       -0.6688324834      -12.2825096991
 C        -7.1204748954        0.7818753107      -12.5958437507
 O        -7.2800697348        1.7147236694      -11.8195290451
 C        -6.5259166647        1.0912083174      -13.9840902914
 C        -5.9925428662        2.5371790948      -14.1390049461
 C        -4.4417803789        2.6389673681      -13.8498624343
 O        -3.7106514639        2.7423277968      -14.8230337428
 C        -3.8070096568        2.7207432778      -12.4687715492
 C        -3.6221309551        1.4226968522      -11.6758114873
 O        -4.5207096704        0.8530443738      -11.0671081165
 C        -2.2078344643        0.8596231012      -11.5069807262
 C        -2.0847655687       -0.4384304855      -10.7355211830
 C        -1.1313573361       -1.3941747031      -11.4996578765
 O        -0.9594952306       -1.2954129179      -12.6896121437
 C        -0.2885572876       -2.5232571971      -10.6778446803
 C         0.6185205507       -3.3017442097      -11.7238105057
 O         0.6405491077       -4.5311100811      -11.9483001352
 C         1.5135389346       -2.5314434313      -12.7058556313
 C         2.5395163929       -3.5110096394      -13.2433497624
 C         3.4578229604       -4.1589314110      -12.1948194121
 O         3.3568565127       -3.9118053602      -11.0152648314
 C         4.4853192438       -5.3960111460      -12.7711201777
 C         5.7028507699       -4.5543428192      -13.4515770291
 O         5.3724652990       -3.8274903905      -14.4147276679
 C         7.2194824522       -4.7178086997      -13.0082343547
 C         7.5869564880       -3.4239839267      -12.2396516958
 C         8.7751244059       -2.6699713831      -12.8898880932
 O         8.9908333854       -2.7207069720      -14.1395742674
 C         9.6099257201       -1.5643329564      -11.9737562910
 C         8.5900295046       -0.2904838635      -11.9795958726
 O         7.9868262786       -0.0222388305      -10.9401874513
 C         8.5052914449        0.5272720822      -13.2083277461
 C         7.0688340201        0.9808660273      -13.4962590135
 C         6.5010641258        0.3254341937      -14.7777151707
 O         6.8169983242       -0.7783789147      -15.0644234788
 C         5.4722625958        1.1759798732      -15.6222803773
 C         4.8421622722        0.2807518246      -16.7479322579
 O         5.4250675015        0.2280396683      -17.8052620021
 C         3.4647049258       -0.5202478971      -16.3703838106
 C         3.0484522466       -1.3830536835      -17.5325641859
 C         4.0953161140       -2.2640457894      -18.1404850578
 O         4.9276841211       -2.6956949710      -17.4412248610
 C         3.9503005243       -2.6706944743      -19.6407547208
 C         5.5337789533       -2.7718635365      -20.0193414566
 O         6.0245555251       -3.8387854728      -20.1286710275
 C         6.3539378435       -1.4280098911      -20.1508167676
 C         7.8524334030       -1.8012196430      -20.1719379829
 C         8.3291855836       -2.1066468919      -18.7313092713
 O         7.7978080623       -1.5430878116      -17.7935456945
 C         9.5030942268       -3.2332509089      -18.5757482004
 C         8.7113745079       -4.6014669560      -18.2695983176
 O         7.9642659328       -4.5829967901      -17.2718548989
 C         8.8935720748       -5.7917124897      -19.1779458055
 C        10.3935016740       -3.2340926431      -19.8876229380
 C        10.3331790107       -2.8151737454      -17.3380779595
 C         3.3665464927       -4.0708942413      -19.7992478758
 C         3.4148396069       -1.5282908776      -20.5780495545
 C         4.4502956347        1.7378410421      -14.5021996634
 C         6.1613504359        2.3950296190      -16.3184462268
 C         9.8368667152       -2.1534545892      -10.6410924743
 C        10.8984250738       -1.0900881254      -12.7334590001
 C         4.8255334747       -6.3200672345      -11.5188173654
 C         3.7662610866       -6.1210637787      -13.9355373653
 C         0.5304739751       -1.9743121395       -9.3904327443
 C        -1.2966392179       -3.6590762628      -10.1217891243
 C        -2.4217787582        3.5292713521      -12.7362055073
 C        -4.6771971738        3.7030165028      -11.5792670714
 C        -6.7770788790       -1.8216128625      -12.7883450112
 C        -8.9486357822       -0.6173663959      -12.9615586663
 C        -7.4103365542        0.9603916966       -5.9146327202
 C        -8.5149191641       -1.2649863353       -5.3589002817
 C       -15.0227408602        2.0891523900       -2.4163704403
 C       -13.2550176970        0.9858452753       -0.9173006658
 C       -20.3697769344       -2.3694079945       -1.8465805516
 C       -20.0495278840       -0.8765648946        0.1883083159
 C       -16.5949478445       -7.0842551849        2.3061341015
 C       -15.4448760144       -5.5600331381        3.7340794382
 H       -12.5362940440       -6.8053173492        1.0941321630
 H       -13.2922264002       -6.9930816612        2.7513099452
 H       -12.7441032921       -5.5798310231        2.3302706395
 H       -18.4409752145       -4.8657630948        2.7813992195
 H       -18.2788421868       -5.4202532236        1.1543253159
 H       -17.9189777397       -2.4551387316        1.6703394918
 H       -19.7486997620       -3.0236702041        1.7207839245
 H       -17.9279625736       -1.9416247032       -3.5604126764
 H       -16.9885183619       -2.6032856922       -2.2364375233
 H       -16.8550658488        0.2705535345       -3.3193715478
 H       -15.9411639524       -1.0858330044       -3.9815135206
 H       -11.5330579286       -0.1214731690       -2.7893266552
 H       -11.5377207074        1.6723634695       -3.1592967506
 H       -11.8469538940        0.8072116637       -5.6699532036
 H       -11.1294911907       -0.6595857781       -5.0029234453
 H        -9.2609966799       -1.5758259143       -8.6371823639
 H        -7.7825009266       -0.8398603132       -7.9672170400
 H        -8.3298044727        1.0977944824       -9.4761096610
 H        -9.5693958496        0.0649001619      -10.3295382356
 H        -7.3367331792        0.9865108111      -14.7552061747
 H        -5.7796586973        0.3496999995      -14.1642534512
 H        -6.5754621093        3.1717328826      -13.4260038713
 H        -6.2735865196        3.0925064718      -15.0863168138
 H        -1.4798408027        1.5127456416      -10.9974609311
 H        -1.9205671809        0.7496601034      -12.5286616654
 H        -2.9695443731       -1.0597454027      -10.7040438949
 H        -1.6558383846       -0.2700588985       -9.7289490223
 H         1.9337063478       -1.6018127866      -12.2915621354
 H         1.1349123412       -2.1729224739      -13.6206648445
 H         3.2236419408       -3.1278409102      -14.0545621031
 H         1.9477134782       -4.3275457683      -13.6669862643
 H         7.7884835899       -4.8470592787      -13.9488049669
 H         7.3934614314       -5.5910632073      -12.4345204041
 H         7.6024313815       -3.4919071835      -11.1334155273
 H         6.7267189741       -2.6744069265      -12.2959494595
 H         8.7739422075       -0.0715079778      -14.0954690348
 H         9.0163452376        1.4374277437      -13.1875366067
 H         7.1341472759        2.1866618693      -13.6019573776
 H         6.3792694762        0.8392630220      -12.6541108413
 H         2.7124581932        0.3013042792      -16.1114104916
 H         3.5090537631       -1.1384247320      -15.4829282633
 H         2.6536601695       -0.7501202720      -18.3031546604
 H         2.1690076454       -1.9814943428      -17.0904189244
 H         6.1483934489       -0.7956439819      -19.2655049681
 H         6.1200221122       -0.8378257139      -21.0287856249
 H         8.5561505761       -1.0763099839      -20.6241463778
 H         7.7956069480       -2.8461481989      -20.6514713991
 H         8.1712739245       -5.6230920108      -19.9560507034
 H         8.6060327528       -6.8062765368      -18.7749301564
 H         9.9273495495       -5.9127688396      -19.4895785235
 H        11.4649979969       -3.6003070574      -19.9176713066
 H        10.5514344687       -2.1936399057      -20.0268633562
 H         9.8817612885       -3.6305665768      -20.7655234698
 H        10.0313909131       -3.2591069171      -16.3897202547
 H        10.0674761638       -1.7903498809      -17.1910097945
 H        11.3934057899       -2.8342659528      -17.5664132941
 H         3.3936249674       -4.3615330350      -20.8446782043
 H         2.3305507642       -4.2034252495      -19.4497373496
 H         4.0031615809       -4.7418309186      -19.2571671489
 H         3.6401075684       -1.7295761280      -21.6192576709
 H         3.9778222114       -0.6850579610      -20.2443796433
 H         2.3444279539       -1.3677254112      -20.3366656848
 H         3.8362184688        0.8975457738      -14.2511416857
 H         3.8265818254        2.4660403165      -15.0962571435
 H         4.8554987522        2.3162091295      -13.6863235323
 H         5.8193452019        2.4242352492      -17.3287679960
 H         7.2629768897        2.4350480154      -16.2346346793
 H         5.7960250436        3.3711132333      -15.9101286628
 H         9.9348143598       -3.2019351948      -10.4856240759
 H         8.9171858718       -2.0462135535      -10.0295197453
 H        10.6918139588       -1.7009071222      -10.0960225043
 H        10.8565327453       -1.0633208973      -13.8014822558
 H        11.7896148368       -1.6647034897      -12.4967087503
 H        11.1074615356       -0.1316522860      -12.4210019010
 H         4.3052167629       -7.2702364387      -11.7471198896
 H         4.3235838881       -5.7937594814      -10.6917410222
 H         5.8178588521       -6.4983721360      -11.2048193346
 H         2.8835594110       -6.5832513907      -13.5478967924
 H         4.3455251662       -6.8736861033      -14.4141045195
 H         3.4416706671       -5.3558098782      -14.6365394533
 H         1.1766222838       -1.1406241309       -9.5494162089
 H         1.2025839386       -2.7356828275       -9.1308237006
 H        -0.0376678883       -1.8255882064       -8.5133041709
 H        -0.7534267537       -4.5456108003       -9.9107237962
 H        -2.0012458325       -3.9541807303      -10.8699624853
 H        -1.9585588215       -3.1839005647       -9.4253258864
 H        -2.5171564039        4.4462756710      -12.1644861952
 H        -2.3571569073        3.7268000760      -13.8472331273
 H        -1.5758537514        2.8385222119      -12.4703246322
 H        -5.8182237654        3.5089818180      -11.5703223656
 H        -4.6130454173        4.6843369881      -12.0168849551
 H        -4.3587569290        3.6730791038      -10.5538716519
 H        -5.7590818279       -1.6872263791      -12.5289967576
 H        -6.8438048320       -1.8279760226      -13.8489705675
 H        -7.0855808543       -2.7045896566      -12.1992258543
 H        -9.3185569613       -1.6763988648      -12.7892286323
 H        -8.9381375261       -0.3714791787      -14.0408785530
 H        -9.6492853219        0.0503842342      -12.4880342533
 H        -7.4590463415        1.6555040561       -6.7045619675
 H        -6.6045523340        0.2520585486       -6.2510436273
 H        -7.2399809845        1.5308445956       -5.0173060082
 H        -8.1126974873       -1.0929683337       -4.4025961745
 H        -7.6645924728       -1.7518831395       -5.9762608582
 H        -9.4130636605       -1.9085024972       -5.3976103816
 H       -15.7714186151        2.0881215055       -1.5960554293
 H       -15.4383351175        2.0297882605       -3.3886859263
 H       -14.4090019663        3.0403476472       -2.2629373339
 H       -12.5512681768        1.7918426936       -1.1155260945
 H       -12.9626830992       -0.0215835440       -0.6229010271
 H       -13.8216046976        1.3546363424       -0.0974512155
 H       -21.2001387692       -2.7868409707       -1.3460449360
 H       -19.8022784252       -3.1547673990       -2.4644279342
 H       -20.7703287490       -1.6339458535       -2.5379173514
 H       -20.6832554676       -1.5127493184        0.6659833664
 H       -20.5538295005       -0.0411757489       -0.2887967611
 H       -19.5082721538       -0.4916366018        1.0251004264
 H       -16.8909899394       -7.4135276863        1.3085078773
 H       -17.4823819664       -6.8522107267        2.8580728752
 H       -16.0502783571       -7.9759336800        2.6325125978
 H       -14.8651517651       -6.3503238949        4.2158021117
 H       -16.3261117581       -5.3225957663        4.2796084723
 H       -14.8406696505       -4.7124644462        3.8138012833
 Na      -15.6224149457       -3.6753145172       -0.7300329260
 Na        6.9462983864       -2.8488383716      -15.9900564617
