232

 C       -13.1250873070       -6.1535784657        1.7377618928
 C       -14.5600894940       -5.8570132398        1.4186594687
 O       -14.7082910936       -5.4904817365        0.2207390486
 C       -15.8145967512       -5.8194340567        2.3502143553
 C       -16.5581940723       -4.5300159686        1.8669333783
 O       -15.9207964981       -3.4958420357        1.5192299592
 C       -18.1050574753       -4.5574999255        1.8746982765
 C       -18.7649358204       -3.2578751262        1.4999113419
 C       -18.5696546295       -2.9412437483       -0.0655621790
 O       -17.9233037274       -3.7150031420       -0.7340438705
 C       -19.4011209508       -1.9154751984       -0.6892181144
 C       -18.1768563753       -1.0298752082       -1.5379328710
 O       -18.0145375418        0.0999860894       -1.2101058072
 C       -17.4000097173       -1.6085414327       -2.7988593281
 C       -16.2374177481       -0.6599724638       -3.1332265039
 C       -15.2733672623       -0.4767386476       -2.0286070133
 O       -14.9095495307       -1.3480297882       -1.2365278696
 C       -14.3208601080        0.7015503714       -2.1503296803
 C       -13.3602033337        0.5088791935       -3.4774223937
 O       -13.9809813306        0.3088552097       -4.4824044694
 C       -11.8721478212        0.7559480930       -3.5303038431
 C       -11.2674986183        0.3120361951       -4.8560964936
 C        -9.8414503846        0.9316503472       -4.9972192381
 O        -9.6075602259        2.0369204668       -4.5896415256
 C        -8.7688817822        0.1632332612       -5.9077838796
 C        -9.3504614946        0.2051745192       -7.3230866474
 O       -10.4452774132        0.7585939212       -7.5640115603
 C        -8.5916198766       -0.5839197007       -8.4285966876
 C        -8.5484323055        0.0085274243       -9.8290903997
 C        -7.5979912382       -0.7443746259      -10.7009299969
 O        -6.8508016686       -1.6196435790      -10.2557523468
 C        -7.6788167011       -0.5976696363      -12.2510152895
 C        -7.1576459516        0.8533756713      -12.6028457733
 O        -7.2159913006        1.7973354780      -11.8471475419
 C        -6.5934718068        1.0785671876      -14.0996613874
 C        -5.9637673776        2.4740386997      -14.0992785976
 C        -4.4143260923        2.5439327987      -13.8999953236
 O        -3.7385167327        2.5822530596      -14.9499186863
 C        -3.8036184489        2.7674910664      -12.4812175472
 C        -3.4886027179        1.4395852157      -11.6063557026
 O        -4.4224749745        0.9065120356      -10.9827346196
 C        -2.0452308549        0.9137072011      -11.4758225184
 C        -2.0236833004       -0.4045681818      -10.7202631146
 C        -1.1390123439       -1.4251929638      -11.4046935681
 O        -1.0336115186       -1.3762839540      -12.6554342155
 C        -0.3192763221       -2.4987050157      -10.6639982652
 C         0.5929626571       -3.1969888177      -11.6708445245
 O         0.5111777541       -4.4357733442      -11.7143292209
 C         1.5326838815       -2.5080012584      -12.6377407971
 C         2.4082571517       -3.5234838024      -13.2432279620
 C         3.3783949232       -4.2889425438      -12.2046786130
 O         3.4679341264       -4.0447432453      -11.0471697781
 C         4.3524400924       -5.3447390127      -12.8562337438
 C         5.6257610371       -4.6017765975      -13.4355641668
 O         5.4828533772       -3.7737251556      -14.3130723946
 C         7.1731155510       -4.6388112095      -13.0275223965
 C         7.5114716060       -3.2988636054      -12.2398888478
 C         8.7083568113       -2.5550550502      -12.8622576297
 O         8.9791497632       -2.6721808837      -14.0066173863
 C         9.5885905173       -1.5405032058      -11.9126478874
 C         8.6720424368       -0.2919442492      -11.8696428449
 O         7.9951752478       -0.0556692495      -10.9312009341
 C         8.6656433164        0.5272208918      -13.2202892428
 C         7.2370603281        1.0736589130      -13.4819594570
 C         6.5002946024        0.4120910292      -14.7719470529
 O         6.7553417681       -0.7568156443      -14.9829280479
 C         5.5156115777        1.1652091826      -15.6932420157
 C         4.9132638612        0.2248359469      -16.7619222576
 O         5.3488101501        0.1808540341      -17.8599950645
 C         3.6073266369       -0.4701476416      -16.4627915412
 C         2.9410333042       -1.2899844833      -17.6304491889
 C         4.0792506278       -2.2390865533      -18.1290798612
 O         4.8272405971       -2.8655793427      -17.3576612355
 C         4.1927202223       -2.6291962091      -19.6720037680
 C         5.6565457473       -2.7898984933      -20.0880501450
 O         6.1353429915       -3.9061337222      -20.2136794243
 C         6.4082667972       -1.5654027851      -20.3101711165
 C         7.9300062102       -1.8843332286      -20.3101573858
 C         8.3223717895       -2.1624737422      -18.8223792757
 O         7.8199243928       -1.5741094879      -17.8424058428
 C         9.4287324397       -3.1080489651      -18.6079309622
 C         8.6697809322       -4.5481853390      -18.3026456097
 O         7.9508153564       -4.7059665541      -17.3540298988
 C         8.8966681463       -5.7241438982      -19.2040888643
 C        10.3820096342       -3.3428847038      -19.7549775021
 C        10.1927460052       -2.7911812360      -17.3057521781
 C         3.4798496243       -3.9727519777      -19.7700783873
 C         3.4452202641       -1.6186616302      -20.5659597853
 C         4.3638583846        1.7628808941      -14.7372793808
 C         6.2754524663        2.2866114091      -16.4037435037
 C         9.8223542723       -2.1350258093      -10.5652110850
 C        10.8184639962       -1.2602916631      -12.7204128325
 C         4.7668148180       -6.2764187116      -11.7181300789
 C         3.8403665043       -6.1549609577      -14.0044274499
 C         0.4011790384       -1.9231645848       -9.5507055866
 C        -1.3266497794       -3.5571043341      -10.0337974777
 C        -2.4530262514        3.6787216722      -12.6952750852
 C        -4.7614769540        3.5540412803      -11.4305972330
 C        -6.7049846489       -1.6627292514      -12.7984254672
 C        -9.0845685448       -0.6973744666      -12.8614926953
 C        -7.3566892595        0.9257058867       -6.0079479295
 C        -8.5370742078       -1.2745695880       -5.3740120346
 C       -15.0619307821        2.1037257449       -2.4650738211
 C       -13.4388766129        0.9099862259       -0.7515904999
 C       -20.4603334644       -2.4832922776       -1.6549201985
 C       -20.0570758938       -0.8251489120        0.2327744225
 C       -16.6747878159       -7.0845890319        2.2366490400
 C       -15.3155473844       -5.5846043017        3.8540879622
 H       -12.8504075800       -6.7256745883        0.8632727210
 H       -12.9248667159       -6.5500145969        2.7195851425
 H       -12.4770870342       -5.3177395947        1.7761756315
 H       -18.4179256028       -4.8399912189        2.8878314865
 H       -18.3708659585       -5.3423173026        1.2101948311
 H       -18.3465929312       -2.4450883664        2.0307359659
 H       -19.8670437024       -3.4527260041        1.6680034994
 H       -18.1200426573       -1.7623843353       -3.5564536967
 H       -17.0780873763       -2.6402481321       -2.5474011415
 H       -16.6977232468        0.3081630859       -3.3818440573
 H       -15.7131470541       -1.0554791753       -4.0102358976
 H       -11.3854196256        0.3227790356       -2.6459982744
 H       -11.7642814678        1.8179310090       -3.5582508710
 H       -11.7934271093        0.8561872871       -5.6717799047
 H       -11.2801639054       -0.7521623637       -4.9428878997
 H        -9.1227295185       -1.5265393875       -8.5623572508
 H        -7.6677004126       -0.7573288557       -7.9225094083
 H        -8.1831158075        1.0703743735       -9.6841032328
 H        -9.5805832647        0.0634094468      -10.2258037746
 H        -7.4483517913        1.2178271081      -14.7885076253
 H        -5.9687773821        0.2669137747      -14.4402304884
 H        -6.5442225556        3.0761682158      -13.3257296416
 H        -6.2191751733        3.1120780730      -15.0145335813
 H        -1.5229812721        1.5735905792      -10.8243107428
 H        -1.5964815405        1.0026795544      -12.4505159256
 H        -3.0577413266       -0.8847962209      -10.7327313161
 H        -1.6595331988       -0.2589937761       -9.6666067562
 H         2.1261657576       -1.7241388734      -12.2230832948
 H         0.9947745124       -1.9463781516      -13.4375161229
 H         3.0792849657       -3.1583572819      -14.0399804678
 H         1.8110585447       -4.3267505530      -13.6949735652
 H         7.7156855783       -4.7863519084      -13.9482848719
 H         7.4908645113       -5.4390978646      -12.3594974002
 H         7.6406315908       -3.5189274153      -11.1984866422
 H         6.6431184024       -2.5895566991      -12.1217234700
 H         8.7999439710       -0.2191300639      -14.0641592865
 H         9.3492498460        1.4221577436      -13.3282470718
 H         7.2277850855        2.0917759564      -13.2268504115
 H         6.6386358206        0.6268678763      -12.6496697606
 H         2.9714166773        0.2563990269      -16.0076357935
 H         3.8094659517       -1.2268118853      -15.6815012146
 H         2.6805992309       -0.6222367188      -18.4608036474
 H         2.0201542902       -1.7101529798      -17.1387202511
 H         6.0972554102       -0.7426909721      -19.6742767844
 H         6.2036775683       -1.2845399498      -21.3112538308
 H         8.5202394784       -0.9813373190      -20.5586907400
 H         8.0604012407       -2.7965754233      -20.9904736191
 H         8.0774567425       -5.7371881928      -19.8938944922
 H         8.8288428191       -6.6959802989      -18.6779460143
 H         9.9404214743       -5.7932460994      -19.6496394999
 H        11.3781102187       -3.5125616791      -19.4323437784
 H        10.5817619397       -2.3070639319      -20.2995372447
 H        10.0844651021       -4.0919830939      -20.5202645127
 H         9.6595562505       -3.2158104099      -16.4059860228
 H        10.1801979017       -1.6928581028      -17.1189234740
 H        11.2561918382       -3.1692776058      -17.4309511810
 H         3.2980790921       -4.2109195066      -20.8000557285
 H         2.4596960975       -3.9763346989      -19.3028190837
 H         4.0583439484       -4.7282927463      -19.3153363902
 H         3.2533041929       -1.9560221333      -21.5362789172
 H         4.0051772502       -0.6906180882      -20.5222955761
 H         2.5485679864       -1.4380424541      -19.9615118270
 H         3.8163929707        0.9108141242      -14.4854705475
 H         3.7473827658        2.4364828408      -15.2570322676
 H         4.7228482439        2.3179317227      -13.8803510733
 H         5.4920804342        2.6931128773      -17.1339539357
 H         7.2463987601        2.0627208765      -16.8022362762
 H         6.3609961622        3.1724893400      -15.6994623878
 H        10.4644141377       -3.0057034253      -10.3932617835
 H         8.9706355423       -2.4173694422      -10.0606152422
 H        10.2783037260       -1.3225783752       -9.9592943500
 H        10.6569529102       -1.3764261751      -13.7821845470
 H        11.6221358266       -1.9579187742      -12.4547998650
 H        11.2195485159       -0.3109598125      -12.5628030701
 H         4.4300644628       -7.2970259603      -12.0243902402
 H         4.2663324179       -5.9672348291      -10.8338950212
 H         5.8221534806       -6.3270398364      -11.5688888656
 H         3.0937042185       -6.8068382684      -13.5994920711
 H         4.5925043099       -6.8541193036      -14.3749239645
 H         3.3724656207       -5.5104063327      -14.8017992029
 H         1.0179429139       -1.1430386758       -9.8912279946
 H         1.0653260295       -2.6352075924       -9.0650801158
 H        -0.2242834829       -1.5571617126       -8.7934704044
 H        -0.7296040004       -4.4032450519       -9.7440003132
 H        -1.9421251133       -3.9697771141      -10.7577920531
 H        -2.0198156869       -3.0850937858       -9.4259626294
 H        -2.5201509562        4.5379481274      -12.0021665368
 H        -2.4617879453        3.9935071471      -13.7168325666
 H        -1.6009426921        2.9881665315      -12.5993240277
 H        -5.5563709856        2.8558672404      -11.0613077180
 H        -5.3930591696        4.3389247636      -11.9067256825
 H        -4.1924834865        3.9243816966      -10.5675074220
 H        -5.6791410775       -1.3858829162      -12.6331391227
 H        -6.7956490680       -1.7996364677      -13.8260556460
 H        -6.8580264228       -2.5399933499      -12.1470339735
 H        -9.5259492485       -1.5734619542      -12.3580310428
 H        -8.9514653038       -0.9633137347      -13.9504694324
 H        -9.7933605876        0.1633133727      -12.7941716627
 H        -7.3452549503        1.7424703248       -6.7617577187
 H        -6.5957526254        0.2736131809       -6.4122462006
 H        -7.1640110039        1.3535706654       -5.0244525625
 H        -7.8568364686       -1.1999458139       -4.4998652754
 H        -8.0366539134       -1.8146171663       -6.1647063130
 H        -9.4639374828       -1.7804072697       -5.1789139483
 H       -15.8832769518        2.0455110771       -1.8163839947
 H       -15.3586494872        2.2326990066       -3.4819488118
 H       -14.4941032379        2.9689973842       -2.0322688193
 H       -12.6041207430        1.6201455994       -0.8645000489
 H       -13.3124602635       -0.0603970658       -0.3902173443
 H       -14.0233565587        1.3262301290        0.0573312643
 H       -21.3554575682       -2.8397655978       -1.0473730020
 H       -20.0654328735       -3.3012055581       -2.3244704796
 H       -20.8608214848       -1.6849598754       -2.2312136242
 H       -20.9633623735       -1.2530958535        0.7702160487
 H       -20.1794332168        0.0867245337       -0.2755899719
 H       -19.4576137100       -0.6828425855        1.0609568818
 H       -16.7680140811       -7.4236049404        1.2262417767
 H       -17.7504396092       -6.9100039045        2.6673063345
 H       -16.1645652875       -7.9381484509        2.6884026836
 H       -14.6783686293       -6.3640716176        4.2411294447
 H       -16.1469038385       -5.4094057351        4.5094931906
 H       -14.6794341542       -4.6466300621        3.9253375284
 Na      -15.5646952606       -3.5860969609       -0.8269383233
 Na        6.9718114832       -2.8844991216      -15.9445268271
