232

 C       -12.9834221908       -5.7543021992        1.8794002621
 C       -14.2806059927       -5.3920469747        1.3121041271
 O       -14.3076757733       -5.1177016675        0.1442762154
 C       -15.5636099567       -5.4369136012        2.2687094630
 C       -16.5594490092       -4.2716015938        1.9549032152
 O       -16.0567814514       -3.2335129612        1.7374292339
 C       -18.0740610643       -4.4499775575        2.2184482208
 C       -18.9040214425       -3.2802248789        1.7824859918
 C       -18.6659023019       -2.9675775487        0.2366546900
 O       -18.0158024734       -3.8539394875       -0.3301562436
 C       -19.2944343106       -1.7453790216       -0.5394408894
 C       -18.1423362215       -1.0052645517       -1.2550704550
 O       -17.6573436760        0.0427506833       -0.8314228531
 C       -17.7220566813       -1.5562397114       -2.6123606782
 C       -16.6321558300       -0.6849914548       -3.2171889661
 C       -15.4018049683       -0.6834028852       -2.4029342822
 O       -15.0637032137       -1.5937218026       -1.6671784694
 C       -14.4981170362        0.6742806037       -2.3602761069
 C       -13.6026077114        0.5074611881       -3.6279623299
 O       -14.0943334165        0.0906723632       -4.6667772272
 C       -12.1287504844        1.0383622319       -3.6460162177
 C       -11.2391803313        0.1364524892       -4.5072727020
 C        -9.9091310149        0.9116149838       -4.8908852222
 O        -9.6652316869        1.9851211766       -4.3982730799
 C        -8.8311430443        0.2411324483       -5.8136395090
 C        -9.3209876856       -0.1546694467       -7.3347729123
 O       -10.4693069387       -0.0902039268       -7.5978866707
 C        -8.3062326400       -0.7169561398       -8.2842209751
 C        -8.4175420395       -0.1458804185       -9.7187464024
 C        -7.3768677814       -0.8267317483      -10.7853541652
 O        -6.5959655867       -1.6573854819      -10.4675493435
 C        -7.6176038998       -0.4848665061      -12.3763275237
 C        -7.3238563533        0.9221986731      -12.7868456611
 O        -7.6833452547        1.8246808970      -12.0719990131
 C        -6.5665734899        1.1597287353      -14.1256552227
 C        -5.7981161083        2.4751762848      -14.2223219875
 C        -4.4180609972        2.4001834337      -13.6511475979
 O        -3.6787421476        1.5864745441      -14.1200963560
 C        -3.8716786652        3.1013839685      -12.3535842175
 C        -3.5447560939        1.6734992924      -11.6272200102
 O        -4.4683040484        1.1189017129      -11.1379926983
 C        -2.1318757555        1.0438184428      -11.9059324727
 C        -1.6619500741        0.0665204618      -10.7834297482
 C        -1.0695207378       -1.2033833911      -11.4177930985
 O        -1.2647955219       -1.4486699494      -12.5597339303
 C        -0.4547926568       -2.2831001440      -10.4917605286
 C         0.3313386297       -3.3171245449      -11.3389198376
 O        -0.0056932141       -4.4623720273      -11.1923624935
 C         1.4676806112       -2.8047584291      -12.2943124562
 C         2.1567331218       -3.9937218948      -12.9767094931
 C         3.5182987369       -4.4840197693      -12.3477305282
 O         3.7768712327       -4.3054860183      -11.1580076169
 C         4.4130111423       -5.4739255021      -13.2051185932
 C         5.5460751836       -4.5902049134      -13.5573094702
 O         5.4245411145       -3.8216575444      -14.4825418914
 C         6.9112602264       -4.5379057653      -12.7550378194
 C         7.2135812921       -3.1095745832      -12.2966674486
 C         8.4567439076       -2.4819432809      -12.9080632635
 O         8.6891429790       -2.6788339841      -14.0858600229
 C         9.3616688938       -1.6346147018      -12.0145825797
 C         8.6194828510       -0.2499132303      -12.1301094458
 O         7.8957722869        0.2319417210      -11.2343031071
 C         8.6803402358        0.6077103114      -13.3975354253
 C         7.3818259043        1.3348274192      -13.8036974973
 C         6.6514037112        0.4755828442      -14.7582063898
 O         6.5384666589       -0.7152743121      -14.5512586127
 C         5.8676538887        1.2950887583      -15.8638304783
 C         5.2075490363        0.2979323310      -16.8325202786
 O         5.5148726016        0.3538547792      -18.0378045467
 C         4.0971111613       -0.6661110399      -16.3730091008
 C         3.5816640946       -1.4221580940      -17.6088851596
 C         4.4689656089       -2.5683474198      -18.2338177912
 O         5.3349517095       -3.1366734066      -17.5845296842
 C         4.3444445333       -2.9316944834      -19.7523017947
 C         5.9141937126       -3.0287345511      -20.1751977619
 O         6.5107586291       -4.0515426416      -20.1358725936
 C         6.7082686100       -1.6947310563      -20.6496314040
 C         8.1654328778       -2.0712176318      -20.4057677099
 C         8.2761619137       -2.4101745940      -18.9268373402
 O         7.5078112551       -1.8968174896      -18.1305036276
 C         9.3670771747       -3.3272699873      -18.3676925256
 C         8.5608038182       -4.6260201411      -18.1131194296
 O         7.7994527367       -4.7846245451      -17.1744777103
 C         8.6080859722       -5.7626625737      -19.2089467428
 C        10.5248023210       -3.4767032452      -19.3868004074
 C         9.9610186045       -2.7085753724      -17.0853683457
 C         3.7223606554       -4.3145545963      -19.9668462283
 C         3.5861952383       -1.9435434084      -20.7159235307
 C         4.8569211394        2.2274303653      -15.1168959164
 C         6.9301277170        2.3180070296      -16.5721137152
 C         9.5133678375       -2.0740371164      -10.5446833668
 C        10.7614099838       -1.5419174086      -12.6652392997
 C         4.7130803974       -6.8736200942      -12.4998794012
 C         3.6358473635       -5.7455547187      -14.4916122837
 C         0.5884422752       -1.5614905620       -9.5055165229
 C        -1.5510219162       -3.0363611996       -9.6889441790
 C        -2.6286665724        4.0927728268      -12.5612469619
 C        -5.0058197220        3.8259670488      -11.4416634657
 C        -6.8109555136       -1.4779009641      -13.1183678751
 C        -9.1193360522       -0.5383861777      -12.8761008427
 C        -7.5763207236        1.1205020842       -5.8379151018
 C        -8.5689589924       -1.2298197752       -5.1951147317
 C       -15.3538114925        1.9681394907       -2.4687688108
 C       -13.8308690375        0.6593821931       -1.0085169341
 C       -20.3750229786       -2.3933907112       -1.5243251732
 C       -20.0066597479       -0.7907293322        0.5179556061
 C       -16.3054595885       -6.8273063337        1.9918631486
 C       -15.2304053904       -5.2220969254        3.7304835622
 H       -13.0005896928       -6.8254252086        1.8204569052
 H       -12.8789816623       -5.3845929225        2.8997073978
 H       -12.1328722391       -5.4469453615        1.2750954723
 H       -18.2893148902       -4.5033624453        3.2820426985
 H       -18.2364630619       -5.3787429053        1.7354762946
 H       -18.6590839045       -2.4979415018        2.5120115953
 H       -19.9384101326       -3.6023320370        1.8731118179
 H       -18.5981651404       -1.5576148315       -3.2229252442
 H       -17.4070663130       -2.5611307691       -2.4065339109
 H       -17.0678261254        0.2827691371       -3.4365909178
 H       -16.3974657567       -1.1771475139       -4.1915875515
 H       -11.7841094498        1.2347715060       -2.6543415327
 H       -12.2633676154        1.9786951169       -4.1625369844
 H       -11.7706312146       -0.0393559707       -5.4420447219
 H       -11.0293225436       -0.8264824236       -3.9753281370
 H        -8.5335202098       -1.7878139155       -8.2454710675
 H        -7.2509614685       -0.6901410540       -8.0072573998
 H        -8.2454688842        0.9565445735       -9.7409978063
 H        -9.3757456056       -0.4120724677      -10.2049321696
 H        -7.2565105443        1.1752955933      -14.9418001456
 H        -5.7933198666        0.3535632527      -14.3231670471
 H        -6.2950056370        3.3405049891      -13.6672780173
 H        -5.6090505882        2.8410052378      -15.2738472386
 H        -1.4177604733        1.8037817538      -12.0778155890
 H        -2.0998984510        0.5463975934      -12.8629813860
 H        -2.5556929478       -0.3971673656      -10.2330358533
 H        -0.9914080841        0.4098420852       -9.9998236553
 H         2.0245381387       -2.1764623584      -11.6003513895
 H         1.0528047450       -2.1573997810      -13.0799454700
 H         2.1509262251       -3.9163952651      -14.0591295812
 H         1.4636008080       -4.8550880328      -12.9393939399
 H         7.7327731846       -4.8584762487      -13.3701577071
 H         6.8967990579       -5.1736573391      -11.8462094332
 H         7.1766786574       -3.0564269118      -11.1828062335
 H         6.4200029765       -2.4399091479      -12.6515755214
 H         8.8824691504        0.0735748889      -14.3554378994
 H         9.5914796767        1.2467071040      -13.0572284011
 H         7.7644870439        2.2822685818      -14.1698183216
 H         6.7534261367        1.6124991747      -13.0043414518
 H         3.3697343174       -0.0006133151      -15.9806337695
 H         4.3864776211       -1.4392748729      -15.6268891725
 H         3.0815153396       -0.7312806747      -18.3767081729
 H         2.7918219980       -2.0217098796      -17.1550422625
 H         6.4884271991       -0.8607969211      -20.0313226670
 H         6.4821542332       -1.4685915156      -21.6877432804
 H         8.9800739292       -1.2688393078      -20.5270405969
 H         8.5905093818       -2.8300185284      -21.0180779799
 H         9.0421456631       -5.4835716817      -20.2465840596
 H         7.6624062689       -6.3292350573      -19.3271223369
 H         9.3255306167       -6.4343845869      -18.7487112074
 H        11.4355604971       -4.0990997809      -19.0198874780
 H        10.8148897846       -2.4732073197      -19.5966835344
 H        10.1406187035       -3.8711760325      -20.3770811163
 H         9.4425970397       -1.7745731380      -16.8587094104
 H        11.0377505502       -2.4860430095      -17.2951677360
 H         9.6902047777       -3.3128620742      -16.2271677399
 H         3.7830062509       -4.5840176471      -21.0302838409
 H         2.6950085713       -4.3421445417      -19.7933085912
 H         4.1947091458       -5.0955255717      -19.3141630106
 H         3.5229624545       -2.4572963094      -21.7054673516
 H         4.0446062533       -0.9528201935      -20.7004281904
 H         2.5993251420       -1.8353609092      -20.4032074965
 H         3.9732839691        1.7222640183      -14.6891113515
 H         4.5093853961        2.9930606864      -15.7885124335
 H         5.3987527124        2.6407246116      -14.2929536551
 H         7.9392612262        1.9216634484      -16.4415508741
 H         6.6931986770        3.4198086073      -16.2677564406
 H         6.7613416364        2.2699879463      -17.6600259565
 H         9.3259067265       -3.0990374816      -10.2905459153
 H         8.9574246844       -1.3579644367       -9.8746082641
 H        10.4628113550       -1.8509048674      -10.1719055016
 H        10.6207687046       -1.0756665301      -13.6096303175
 H        10.9939512751       -2.5411999245      -12.8399420242
 H        11.6377457948       -1.1312337933      -12.1107283684
 H         3.9500928595       -7.1233802988      -11.8644062897
 H         5.4954388893       -6.7814545175      -11.7588713074
 H         4.8051178590       -7.6160317360      -13.2913450751
 H         2.7449928439       -6.3262208025      -14.1427753398
 H         4.1403947660       -6.3413746810      -15.2607951393
 H         3.3719008855       -4.8613217146      -14.9924764217
 H         0.9847108792       -0.7319038852      -10.0164350993
 H         1.3543473707       -2.1126958668       -9.0261593156
 H        -0.0339573906       -1.0523708805       -8.8083242604
 H        -1.0053503813       -3.7832031495       -9.1490581846
 H        -2.3120060695       -3.4829736424      -10.3481988406
 H        -2.0409838211       -2.3404665040       -8.9956114965
 H        -1.6562146813        3.6763495969      -12.2108904003
 H        -2.9331249145        4.9860946800      -11.9378852665
 H        -2.6097763134        4.4350723085      -13.6098228153
 H        -5.9717819412        3.3941294473      -11.5662594239
 H        -5.1008851450        4.9143723202      -11.6629498838
 H        -4.7034032885        3.8483872798      -10.3449312813
 H        -5.7915163165       -1.1578995416      -12.9545072763
 H        -6.9562535806       -1.5112705903      -14.2093031305
 H        -6.9961108711       -2.4527915545      -12.8084622012
 H        -9.5144505628       -1.4993954236      -13.2346552174
 H        -9.2307645370        0.0911976939      -13.7725120284
 H        -9.7677823623       -0.2072117178      -12.0313877734
 H        -7.7712342396        2.1176560819       -6.2470952653
 H        -6.6679957258        0.8008299372       -6.3614963191
 H        -7.3400849676        1.1557529552       -4.7640130439
 H        -8.6946949574       -1.2017008025       -4.0937478534
 H        -7.5936580118       -1.5281267046       -5.4950132312
 H        -9.3164017041       -1.9510569126       -5.5781795183
 H       -16.2369561173        1.9044625863       -1.8195999259
 H       -15.7326598777        2.0886754971       -3.5001233912
 H       -14.7825245720        2.7736883858       -2.1542763200
 H       -13.3107178681        1.5845622966       -0.9066747613
 H       -13.2099111347       -0.2049289289       -0.6102606599
 H       -14.6832037548        0.7380342278       -0.2975581355
 H       -21.3502258284       -2.5933726375       -1.0516983084
 H       -20.0912962148       -3.3413315704       -1.9081939193
 H       -20.5493280375       -1.6229315395       -2.3625517557
 H       -20.8049274822       -1.3061293612        0.9442121151
 H       -20.4729836263       -0.0220385709       -0.0913579630
 H       -19.3118452040       -0.3199020314        1.2605176272
 H       -16.7141755619       -6.7848330798        0.9165029365
 H       -17.0653062523       -7.0826909173        2.6511044646
 H       -15.5788590587       -7.6478259151        2.1945727827
 H       -14.6232033349       -6.0395663090        4.0816006992
 H       -16.1494999326       -5.3145522935        4.3239092436
 H       -14.8009105449       -4.2645483871        3.8935945068
 Na      -15.7709181228       -3.5400285440       -0.6146171343
 Na        6.9680710293       -2.6906667207      -15.8944159674
