232

 C       -12.8051838115       -5.7476154833        1.8250287167
 C       -14.0515623139       -5.0760321284        1.4670399950
 O       -14.0978169750       -4.3802198821        0.4936884072
 C       -15.3839693702       -5.2725387222        2.3301528490
 C       -16.3341232761       -4.0765038632        2.0383527642
 O       -15.9083475394       -3.0187154769        1.7446717391
 C       -17.9307705874       -4.2212206479        2.3457202868
 C       -18.7014239801       -2.9947310979        1.7749412069
 C       -18.9169800956       -2.9434990661        0.2325198939
 O       -18.4101806440       -3.8994326051       -0.4063525340
 C       -19.5765603368       -1.7415502263       -0.3447514345
 C       -18.2548098648       -1.1792560289       -1.1433876734
 O       -17.4690200087       -0.5706803763       -0.4243964190
 C       -17.8471396512       -1.5733597132       -2.6320917112
 C       -16.7322238268       -0.7598549700       -3.1453116577
 C       -15.5013571590       -0.6867010735       -2.2842887779
 O       -15.0528014083       -1.6576755661       -1.6884828668
 C       -14.5154762102        0.5407140963       -2.5582912516
 C       -13.7677817636        0.2998089683       -4.0582006623
 O       -14.2270455385       -0.3052935120       -5.0095656034
 C       -12.2572074675        0.6875330393       -4.0863340247
 C       -11.3536343737        0.0071081069       -5.1179552646
 C       -10.0440756242        0.7958826949       -5.1710740872
 O        -9.9214051019        1.9307613597       -4.7411921179
 C        -8.7692188533        0.0655570634       -5.8401537564
 C        -9.1043305533       -0.2622283465       -7.2686277335
 O       -10.2791699295       -0.3156658592       -7.6453252614
 C        -8.0269616461       -0.4406995083       -8.2858510925
 C        -8.5342320915       -0.0361471640       -9.6098423029
 C        -7.7031070469       -0.7789414764      -10.7117962588
 O        -6.6768401040       -1.3650977194      -10.3718370914
 C        -7.9312749664       -0.6021035821      -12.2676706347
 C        -7.4030969622        0.8317026473      -12.5910505700
 O        -7.6045064103        1.8475828726      -11.8782476170
 C        -6.9519992083        1.1076475428      -14.0971372120
 C        -6.0363790611        2.3476956016      -14.2965736263
 C        -4.5286991758        2.4859739775      -13.6947440883
 O        -3.6811305531        2.3214050826      -14.5536004110
 C        -4.1272271010        3.0233650569      -12.3355988870
 C        -3.5294259830        1.8799006247      -11.2997424664
 O        -3.8602326484        1.9663903591      -10.1237794994
 C        -2.4101886938        0.9594197969      -11.8706412064
 C        -1.8383827168        0.0361161828      -10.7846375280
 C        -0.9917837360       -1.1819795204      -11.2090167958
 O        -0.7214052522       -1.3310660703      -12.3828854227
 C        -0.3866526161       -2.2219952063      -10.1712119128
 C         0.1551292912       -3.4679347327      -10.9102717183
 O        -0.4554382756       -4.5689955120      -11.0192284614
 C         1.4584996623       -3.2591158271      -11.6100764032
 C         1.8893769766       -4.2717783773      -12.6537319060
 C         3.2996972883       -4.7898635688      -12.4673915742
 O         3.9726113655       -4.4340566811      -11.5378718078
 C         4.1118348146       -5.6726086647      -13.6503587795
 C         5.3145731340       -4.6572728204      -13.9368933233
 O         5.4380599908       -4.1202948304      -15.0198408941
 C         6.5341970737       -4.3521727981      -12.8386730531
 C         6.8376484984       -2.8905740253      -12.6089419329
 C         8.2905176024       -2.4941753627      -13.0300802728
 O         8.6404251492       -2.7075640245      -14.1889442086
 C         9.2192123760       -1.5797093275      -12.0764782135
 C         8.5145742482       -0.1981821755      -12.1718841890
 O         7.8163145503        0.1471831670      -11.2723546382
 C         8.7825217898        0.8094458336      -13.3867293016
 C         7.5807588565        1.5624506816      -13.9978471636
 C         6.8556102253        0.7359747905      -14.9862651439
 O         6.6662778896       -0.4541152587      -14.7299248264
 C         6.2706279932        1.3391853863      -16.2864828483
 C         5.5826501447        0.2701138338      -17.1319592930
 O         5.5730531595        0.3701460057      -18.3256763389
 C         4.6621007837       -0.7912386741      -16.5475147792
 C         3.8561631216       -1.4712721894      -17.6129364317
 C         4.6399429536       -2.6739641584      -18.2585408278
 O         5.4841471764       -3.3294761781      -17.6950509053
 C         4.4652934758       -3.0832932480      -19.7542441314
 C         5.9480967137       -3.2697997956      -20.3170705243
 O         6.4512540722       -4.3124374686      -20.4969862679
 C         6.7504480645       -1.8978035859      -20.4779532546
 C         8.2583322326       -1.9169908164      -20.1132866641
 C         8.4394936258       -2.1628641796      -18.6567213621
 O         7.9583161113       -1.5121120881      -17.7347155878
 C         9.4959113532       -3.4545748694      -18.1791629376
 C         8.6049090544       -4.6283117503      -17.7324008801
 O         7.8915365577       -4.7845130298      -16.7272991464
 C         8.5230031485       -5.7779239588      -18.6724357293
 C        10.4518939870       -3.8039150115      -19.3752619729
 C        10.3699464084       -2.8825578258      -17.0034110894
 C         3.6234597600       -4.4330504227      -19.8780377004
 C         3.7247650201       -2.1172547905      -20.7012059047
 C         5.0368736358        2.2597123694      -15.8031493756
 C         7.2302015741        2.3282639900      -16.9420976730
 C         9.2603524535       -2.1512415679      -10.6731234528
 C        10.6367332766       -1.7019228388      -12.6043629023
 C         4.5895120042       -6.8250493441      -12.7940431340
 C         3.3444188354       -6.0835983100      -14.9065552843
 C         0.6590628714       -1.5416213645       -9.2617470563
 C        -1.5795298144       -2.5834510145       -9.2871524161
 C        -2.8981695693        3.9757475836      -12.5323300684
 C        -5.2605785533        3.7949991877      -11.5729803025
 C        -6.9979198965       -1.6886777124      -13.0146979937
 C        -9.4268024595       -0.6533221882      -12.5656229064
 C        -7.5794316322        1.1442417176       -5.8254940614
 C        -8.3702733760       -1.1613395204       -4.9976846487
 C       -15.3424106658        1.9948481689       -2.5756990465
 C       -13.5368977312        0.6790172599       -1.3770735268
 C       -20.7732391848       -2.0954744686       -1.3071854745
 C       -20.1003193317       -0.7282598148        0.6700199651
 C       -15.9503575439       -6.6948150036        1.8977481502
 C       -15.1139281203       -5.1972927666        3.9187060670
 H       -12.9078134091       -6.1878061757        2.8156800992
 H       -12.0207104129       -5.0100998288        1.9140511824
 H       -12.6002916650       -6.4672682323        0.9959534694
 H       -18.0160577539       -4.3855273628        3.3960591957
 H       -18.3594724188       -5.0790855471        1.8680759601
 H       -18.1414079586       -2.0153283329        1.8445857113
 H       -19.5745631547       -2.9007424269        2.4278772552
 H       -18.7864042007       -1.3099964212       -3.1720483275
 H       -17.5303602257       -2.6247791908       -2.7317828799
 H       -17.1302671600        0.2176113326       -3.4368347820
 H       -16.4848173180       -1.1859308545       -4.1429840828
 H       -11.8430155468        0.6274207533       -3.1001602447
 H       -12.2810606708        1.7826406953       -4.2571262129
 H       -11.8104284522       -0.0857083801       -6.0747151847
 H       -11.0804573962       -1.0104087066       -4.8304700057
 H        -7.6436921136       -1.4603482916       -8.2640634827
 H        -7.1340952070        0.1444720421       -8.1185510489
 H        -8.3563623076        1.0169463680       -9.9649902741
 H        -9.6348098475       -0.3090000692       -9.7184963943
 H        -7.7300811477        1.2445583576      -14.8072557084
 H        -6.4071908220        0.1747407248      -14.4474113500
 H        -6.5290920645        3.2484818905      -13.8327263159
 H        -5.7845194726        2.5062971306      -15.3734857478
 H        -1.6798543006        1.5699125079      -12.3610581838
 H        -2.7681534311        0.3845959983      -12.7171145972
 H        -2.7181031941       -0.3217856244      -10.1898581920
 H        -1.2483488460        0.5278180272      -10.0393366809
 H         2.2198573649       -3.1965854003      -10.8132152558
 H         1.3112569305       -2.2512878293      -12.0159377439
 H         1.9928594836       -3.8295311751      -13.6467319580
 H         1.1898168751       -5.0445611737      -13.0250581936
 H         7.3671158540       -4.9898279968      -13.1072101750
 H         6.2288764807       -4.6789227635      -11.8366875273
 H         6.6764481521       -2.7189972410      -11.4977009484
 H         6.1676004512       -2.3051276492      -13.2676322777
 H         9.1342462797        0.0199484247      -14.0643011711
 H         9.6410716539        1.5271659947      -13.2480229506
 H         8.1658639408        2.4602303445      -14.2966579233
 H         6.9942153160        1.8945060763      -13.1910170450
 H         3.9520685189       -0.2929837307      -15.8916147817
 H         5.2345934432       -1.5412803602      -15.9640845379
 H         3.3763230566       -0.6947029512      -18.3008824451
 H         3.0186911383       -1.8494713197      -17.0194516147
 H         6.2669958397       -1.1200717223      -19.8916819503
 H         6.7046764480       -1.6098804554      -21.5523074732
 H         8.7957354438       -0.9952224698      -20.5137434131
 H         8.9249332182       -2.5141677573      -20.6694180645
 H         8.4399082394       -5.5003255261      -19.7237882071
 H         7.7797883617       -6.5291827778      -18.2796372425
 H         9.4863271237       -6.2225236065      -18.6509014294
 H        10.8738117833       -4.8421452429      -19.1589822302
 H        11.1807087132       -3.0712920460      -19.3405757151
 H         9.9736213455       -3.8940035164      -20.3558378151
 H        10.0154969167       -1.9844848165      -16.6022122867
 H        11.3659995011       -2.8073011327      -17.3663092988
 H        10.3782573622       -3.6176341887      -16.2481880498
 H         3.4915639583       -4.5696759935      -20.9658327523
 H         2.7050113354       -4.5008893308      -19.3659661725
 H         4.2389112526       -5.3303837051      -19.6005212255
 H         3.7538067388       -2.4716969132      -21.7933802658
 H         4.1742088306       -1.1172383845      -20.7319651988
 H         2.6947487044       -2.0999147775      -20.4132598271
 H         4.5487380123        1.9601223349      -14.8593879898
 H         4.3202956816        2.4581889429      -16.6705543560
 H         5.4228450936        3.2071829610      -15.4179139693
 H         7.5002030422        1.9765657375      -17.8920164930
 H         8.0980498470        2.4145408488      -16.2737359604
 H         6.6568395853        3.2125261281      -17.1843430272
 H         8.4344587944       -1.8486916821      -10.0442535037
 H        10.2883491775       -1.8113695039      -10.2715032240
 H         9.2511534314       -3.2360885164      -10.6378426471
 H        10.4814301232       -1.8951329835      -13.6504809593
 H        11.0681871066       -2.5910942746      -12.1908227606
 H        11.3209908868       -0.8923275865      -12.4345994926
 H         4.1669812554       -7.7797918419      -13.0429777782
 H         4.3455570822       -6.6279244482      -11.7049154457
 H         5.6880559630       -6.9156574771      -12.9533594517
 H         2.5000781936       -6.6862873578      -14.6136886617
 H         4.0247028284       -6.6990350636      -15.4451172038
 H         3.0766658053       -5.3197632433      -15.5624947116
 H         1.5173612137       -1.2320009737       -9.9045803216
 H         1.0790936009       -2.1711425614       -8.4810702489
 H         0.1734645399       -0.6251960662       -8.8495970680
 H        -1.2405474150       -3.2246244319       -8.5024921148
 H        -2.3432591792       -3.0499242125       -9.9334560543
 H        -1.8961552714       -1.7622927289       -8.6354106354
 H        -2.3863649963        3.9451304471      -13.4937200917
 H        -2.2451837353        3.7192738259      -11.6387689302
 H        -3.1687294248        5.0297587060      -12.3543462728
 H        -6.1242095921        3.1128655990      -11.4497207815
 H        -5.5304987420        4.7202849842      -12.0260713815
 H        -4.9248557774        3.9581640355      -10.5364111816
 H        -5.9289887616       -1.5244505524      -12.8420856193
 H        -7.2516460930       -1.8101864269      -14.1032355169
 H        -7.1910726752       -2.6955654427      -12.6598279008
 H        -9.8573335308       -1.2389528838      -11.7550780065
 H        -9.6854140555       -1.2077824264      -13.4509237178
 H        -9.9643257673        0.2775081639      -12.6098792481
 H        -7.7665893164        1.9576462801       -6.4826340819
 H        -6.5982254291        0.6649033704       -5.9534658375
 H        -7.4530144454        1.5718778818       -4.8425020532
 H        -7.6836557014       -0.9576592971       -4.1912228274
 H        -7.8316400595       -1.8165309263       -5.7126664360
 H        -9.2736907264       -1.6984540856       -4.5949872132
 H       -15.7660020639        2.2624464095       -1.5770634990
 H       -16.2360934631        1.8522620805       -3.1861426473
 H       -14.8691800145        2.8588452431       -3.0834360895
 H       -13.0742719241        1.6185842568       -1.2743549630
 H       -12.6087954606        0.0714928020       -1.4606306217
 H       -14.1035995905        0.4758911740       -0.4690414036
 H       -21.4158281534       -2.8166478371       -0.8950723187
 H       -20.3721552143       -2.4979706602       -2.2771977159
 H       -21.3674617463       -1.1987666134       -1.5589021484
 H       -20.7298013059       -1.2174833005        1.2791515242
 H       -20.7393676920       -0.0381955691        0.1576159741
 H       -19.2585496226       -0.1884134055        1.0700745994
 H       -16.5272455431       -6.4637349529        0.9634857999
 H       -16.6188473163       -7.1159942843        2.5816969949
 H       -15.0746853375       -7.3533207394        1.6993576181
 H       -14.6346746994       -6.1254652458        4.2294146059
 H       -16.1006479174       -5.1365341450        4.4008522046
 H       -14.5845219238       -4.3525527916        4.2003872327
 Na      -15.9817670165       -3.3880928390       -0.5691188927
 Na        7.0869925819       -2.7538601775      -15.8925835205
