232

 C       -12.7722640591       -5.7588189610        1.8948348999
 C       -14.0645562008       -4.9565158484        1.4986512679
 O       -14.0884882763       -4.2270168506        0.4840411225
 C       -15.4213510283       -5.2546839801        2.2740425348
 C       -16.3589416430       -4.0222758849        2.0604811562
 O       -15.9578159592       -2.8610659657        1.8647205358
 C       -17.8308704265       -4.1727257573        2.3594433725
 C       -18.6105875099       -3.0074127727        1.8275409283
 C       -18.8736318695       -3.0190906032        0.2985238895
 O       -18.4519771013       -3.9498732228       -0.3920723598
 C       -19.5421277523       -1.7355165808       -0.3625593186
 C       -18.2849045839       -1.1465090654       -1.0303834844
 O       -17.4300507601       -0.5720901013       -0.4179490731
 C       -17.9550460036       -1.5565219670       -2.5184731218
 C       -16.7793516713       -0.7230656486       -3.2135761648
 C       -15.4312006960       -0.6947887680       -2.4663712951
 O       -15.1396028467       -1.5870397256       -1.6506363695
 C       -14.4976578754        0.4821059912       -2.6671047314
 C       -13.7165046955        0.1858229054       -4.0328135064
 O       -14.3135412802       -0.3416646911       -4.9309415626
 C       -12.2274616396        0.7028253444       -4.0576607016
 C       -11.3781287059        0.0744017925       -5.1166589284
 C       -10.0605899421        0.8486270864       -5.1975428893
 O       -10.0039817247        1.9682330838       -4.7562537992
 C        -8.8378294928        0.1254269324       -5.8370692389
 C        -9.1010513158       -0.2041051585       -7.3549409626
 O       -10.2456921154       -0.5178137866       -7.7378546578
 C        -7.9450130996       -0.3730824351       -8.3223232111
 C        -8.4425530983       -0.0695074138       -9.7616873339
 C        -7.5328690281       -0.7994482857      -10.7017252262
 O        -6.5683773242       -1.4187604004      -10.2864907435
 C        -7.9971701075       -0.6389456889      -12.2219749979
 C        -7.5124699100        0.8298727032      -12.6059194526
 O        -7.6630433190        1.7341130193      -11.8198127023
 C        -6.9475586906        1.0975900549      -13.9723562437
 C        -6.1171640785        2.3182841837      -14.2471939395
 C        -4.5792950576        2.5483035947      -13.7100268261
 O        -3.7068237265        2.3111092215      -14.5412432990
 C        -4.0980775496        3.1501075104      -12.2321129318
 C        -3.5307857844        2.0208687849      -11.3895322953
 O        -3.6326628704        2.0635679278      -10.1459674922
 C        -2.5498892722        0.8899900085      -11.9137334398
 C        -1.9480636087        0.0344505045      -10.6935761321
 C        -0.9814204898       -1.0805087235      -11.1843040629
 O        -0.5959143340       -1.1741563542      -12.3643531097
 C        -0.4643157909       -2.2310098854      -10.0639846845
 C         0.1220893724       -3.5631971683      -10.8687712323
 O        -0.5386655204       -4.5700886847      -10.9146284889
 C         1.5791973895       -3.3896224703      -11.4465366909
 C         1.8412450682       -4.3065785567      -12.6920861254
 C         3.3365842373       -4.7453250004      -12.4993745459
 O         3.8963157240       -4.4092107722      -11.5115373061
 C         4.1606311371       -5.6098391485      -13.5015658366
 C         5.2596046608       -4.6073867495      -13.9366876610
 O         5.3341930014       -4.1953697629      -15.0989290278
 C         6.4105325726       -4.2980485212      -12.9954883017
 C         6.7125477266       -2.8183407769      -12.6504414650
 C         8.1829725908       -2.3985121949      -13.0953909265
 O         8.5968584164       -2.8187036262      -14.2154175421
 C         9.1560087010       -1.7013541188      -12.1845681773
 C         8.4555002578       -0.1183837429      -12.1580175820
 O         7.6908922944        0.1236831292      -11.2971648028
 C         8.8883625520        0.7212409030      -13.3749706750
 C         7.6408921064        1.5729230018      -13.9595743862
 C         6.9638454958        0.7460784063      -15.0270400805
 O         6.8246948657       -0.4672448633      -14.8438274225
 C         6.2899281449        1.4567786223      -16.3389479462
 C         5.5469113026        0.3149608999      -17.2665194513
 O         5.6911992743        0.3075740215      -18.4492792112
 C         4.6203883719       -0.7885185698      -16.5505112844
 C         3.8224589728       -1.6629153223      -17.6916150274
 C         4.7290306254       -2.6502311465      -18.2842519090
 O         5.5397712152       -3.2228486831      -17.6117419283
 C         4.5182123246       -3.1334688914      -19.9053317167
 C         5.9905200316       -3.2402562258      -20.3087778937
 O         6.4742228134       -4.3444473519      -20.6687981666
 C         6.7055128715       -1.8945420800      -20.2712623554
 C         8.1951217642       -1.9892950994      -19.9877807216
 C         8.5728574081       -2.3135884734      -18.5363878336
 O         8.0268756049       -1.6113229648      -17.7270077056
 C         9.5679762062       -3.4215740157      -18.1608045425
 C         8.6469617333       -4.7590374531      -17.7247962597
 O         7.9927870065       -4.6411869714      -16.7132210806
 C         8.5144647114       -5.9678539860      -18.6971592704
 C        10.4039760530       -3.9233463411      -19.3226777707
 C        10.4897053254       -2.8315583050      -17.0151280081
 C         3.6865725410       -4.4928502129      -19.9132085830
 C         3.7546082369       -2.1174524588      -20.7471167711
 C         5.1004623745        2.3502480797      -15.7231497018
 C         7.4100408459        2.2393479870      -17.0985698496
 C         9.0033665051       -2.1288041270      -10.6185377444
 C        10.6599969737       -1.6904462734      -12.7081798309
 C         4.7536927183       -6.9068325231      -12.9158388969
 C         3.3410094038       -5.9905386283      -14.7924783448
 C         0.7476150308       -1.5407889110       -9.3705190393
 C        -1.6942453105       -2.6346699370       -9.1311045599
 C        -2.8903907528        4.1200739836      -12.3950832255
 C        -5.3217928227        3.8938700162      -11.5937708028
 C        -7.2605209862       -1.7241992635      -13.0081868772
 C        -9.4883626629       -0.6966891426      -12.4956936690
 C        -7.6844482096        1.1754446512       -5.6962024133
 C        -8.4759928649       -1.1631257904       -5.1279995897
 C       -15.2095387609        1.8382145350       -2.7125691828
 C       -13.5689445003        0.6380048770       -1.4833069826
 C       -20.6874765561       -2.1161312368       -1.3733369067
 C       -20.0273306383       -0.7230578159        0.7324627609
 C       -15.9488647677       -6.6256932650        1.9747043254
 C       -15.0797188539       -5.2345067300        3.7991349843
 H       -12.6346574776       -6.0539039245        2.9471701467
 H       -11.9659622097       -5.0818131026        1.7654911714
 H       -12.7148857014       -6.5150941667        1.1190243468
 H       -17.8569824643       -4.2906457188        3.4106317864
 H       -18.2531765877       -5.1167539800        1.9099016957
 H       -18.1568549070       -1.9883379801        1.9764432137
 H       -19.4954005194       -2.9919628568        2.4078034585
 H       -18.9200001727       -1.4146088150       -3.0024951603
 H       -17.6144010667       -2.5204303708       -2.5698499000
 H       -17.1815810031        0.2927096008       -3.3612387428
 H       -16.7307555008       -1.0439014773       -4.2727152535
 H       -11.7768413093        0.7084858926       -3.1160849317
 H       -12.3969362314        1.7572450701       -4.2162772704
 H       -11.8457299567        0.0521147523       -6.1059967379
 H       -11.2041397495       -1.0166450594       -4.9100152516
 H        -7.5014001936       -1.3595974103       -8.1361914530
 H        -7.1157756595        0.3425034847       -8.1535954275
 H        -8.4905288866        0.9686050227      -10.1093528490
 H        -9.4107552275       -0.5638993332       -9.9794825614
 H        -7.7236579307        1.2246307182      -14.7426791731
 H        -6.4480770007        0.1982234833      -14.3442604847
 H        -6.6500980629        3.2488230301      -13.9526902092
 H        -5.8726877294        2.2773459116      -15.3417848937
 H        -1.7869993771        1.4016460441      -12.5114305411
 H        -2.9744378470        0.2050018433      -12.6023140660
 H        -2.8032271848       -0.3968812491      -10.1232030497
 H        -1.3946750755        0.5825763720       -9.8877690872
 H         2.2236806777       -3.8332156285      -10.6624875269
 H         1.7728356282       -2.3317748522      -11.5111716771
 H         1.5991857467       -4.0229284100      -13.7202329781
 H         1.2417198249       -5.2153749711      -12.6992538418
 H         7.2892538499       -4.7414623490      -13.5385651961
 H         6.3304360476       -4.8662952387      -12.1041141072
 H         6.6335524221       -2.7252611523      -11.5568570377
 H         6.0113824643       -2.2199919284      -13.2041076268
 H         9.4004816051       -0.0496834529      -14.0490036246
 H         9.7214050530        1.3889179903      -13.0176393480
 H         8.1645373618        2.5063428259      -14.2446812729
 H         7.0412949445        1.7928048123      -13.1364981907
 H         3.8589503849       -0.2410579371      -15.9691187188
 H         5.2437664802       -1.3164552890      -15.9114648237
 H         3.4833780532       -0.9392929669      -18.4261484768
 H         2.8690399452       -2.1273026515      -17.2779865023
 H         6.2067577123       -1.2844560445      -19.5509493448
 H         6.6115341319       -1.4341600781      -21.2494878775
 H         8.6701485516       -1.0766764889      -20.2535647729
 H         8.8107758012       -2.4795268699      -20.7391264926
 H         8.1529353725       -5.5091537075      -19.5854175760
 H         7.9503184271       -6.8582848142      -18.3217446385
 H         9.5544269103       -6.2275529271      -19.0837829307
 H        10.9231172248       -4.7711915303      -18.9028060324
 H        11.1276687283       -3.0835924846      -19.6527909490
 H         9.7492864190       -4.3226165313      -20.1296583149
 H        10.0195051510       -2.0231351276      -16.4315782661
 H        11.3289062220       -2.4652732348      -17.5510641040
 H        10.9326369562       -3.6460928697      -16.4129519171
 H         3.5428346941       -4.8937875646      -20.9157454517
 H         2.7047981160       -4.3521019428      -19.4120261651
 H         4.1792374735       -5.2817692518      -19.4013108684
 H         3.7973153098       -2.4301306927      -21.7825402345
 H         4.2631791128       -1.1836668734      -20.7966566238
 H         2.6684225425       -2.0165049793      -20.4764505498
 H         4.6392158097        1.8410803977      -14.9110230536
 H         4.3543486389        2.6395471498      -16.4958492788
 H         5.4227558713        3.2505330919      -15.1917393079
 H         7.5570132890        1.6308346355      -18.0316359933
 H         8.2972336920        2.2169788907      -16.5228402016
 H         6.9678524585        3.1663426920      -17.5200772125
 H         8.3474413183       -1.4498074562      -10.0735994345
 H         9.9852108291       -2.0281085727      -10.2238859659
 H         8.6309337568       -3.1585039455      -10.4189456732
 H        10.6437298815       -1.4474771758      -13.7671537244
 H        10.9809356578       -2.7601343917      -12.6859289068
 H        11.2919653545       -1.1535786849      -12.1226633779
 H         4.1703108601       -7.7290285071      -13.4167674892
 H         4.7271072578       -7.0595442362      -11.8279342541
 H         5.7393262416       -7.0084738634      -13.2885394816
 H         2.6178891695       -6.6958405926      -14.5260152358
 H         4.0499661746       -6.4302075218      -15.4524111191
 H         2.8398609977       -5.1739481935      -15.3720673791
 H         1.4257690407       -1.0794977940      -10.0836969057
 H         1.3023145593       -2.2119010966       -8.7732143911
 H         0.3314861549       -0.8097038345       -8.7083383889
 H        -1.3117100030       -3.3654037142       -8.4454222690
 H        -2.3392626443       -3.1211101382       -9.7959732280
 H        -2.0852332574       -1.9466681279       -8.4097875650
 H        -2.4373309933        3.9455950070      -13.4035131788
 H        -2.1939391133        3.8639526820      -11.5712925379
 H        -3.1146869261        5.2330559190      -12.3140047817
 H        -6.3375414846        3.3816490187      -11.7851004108
 H        -5.2977120565        4.9276871725      -11.9005444503
 H        -5.2374790743        3.8177955640      -10.5133507055
 H        -6.2178070958       -1.5559396043      -13.1007551817
 H        -7.7190689917       -1.9469540644      -13.9362740245
 H        -7.2753006175       -2.7119471881      -12.4528557157
 H       -10.1350079862       -1.4093538767      -11.8949211381
 H        -9.5944353917       -1.0168638625      -13.5454561623
 H        -9.9840909271        0.2655571052      -12.5106922381
 H        -7.9484063844        1.9909688349       -6.3253091012
 H        -6.6600945867        0.7690603548       -5.8229771685
 H        -7.6092778655        1.6752193557       -4.7449554207
 H        -8.1222192778       -1.0643645442       -4.1355622792
 H        -7.6295657496       -1.5997353403       -5.7728254976
 H        -9.3423491509       -1.8490133541       -5.1599706742
 H       -15.5178976440        2.1962412754       -1.7621118256
 H       -16.0813199404        1.8270966326       -3.2972943793
 H       -14.6096697631        2.5988681291       -3.3202767615
 H       -13.0541940624        1.6252158930       -1.2648493408
 H       -12.6801417905        0.1171747085       -1.6571565798
 H       -14.1023967678        0.3384253875       -0.5940792628
 H       -21.4642615741       -2.7447525436       -0.9274114190
 H       -20.2296778185       -2.6403025547       -2.2995167727
 H       -21.1618874652       -1.2239438376       -1.7605589895
 H       -20.5785727912       -1.3379142021        1.5008165856
 H       -20.7350869411       -0.0399875943        0.3337671011
 H       -19.1759628925       -0.2031718472        0.9769746445
 H       -16.5200458059       -6.6607962770        1.0838138299
 H       -16.6422992273       -6.9291905662        2.8551097244
 H       -15.0307187516       -7.2615384362        1.9242325339
 H       -14.3439765350       -5.9823059675        4.0641578543
 H       -15.9615955652       -5.3271852743        4.3782445124
 H       -14.7062576382       -4.2458762422        3.9557361245
 Na      -16.0258151966       -3.3964876088       -0.5561780481
 Na        7.0505659038       -2.6433079116      -15.8352926175
