232

 C       -12.7620175115       -4.9147574775        1.8798611229
 C       -14.2620550682       -4.6829307835        1.4672326689
 O       -14.5868099929       -4.6529092408        0.3039188991
 C       -15.2473882964       -4.9025266096        2.6023865814
 C       -16.3354850975       -3.8283975264        2.4262753376
 O       -15.9950447936       -2.7331235887        1.9396443597
 C       -17.8676394813       -4.2013657907        2.7170039385
 C       -18.7107467301       -3.0670876237        2.2181185893
 C       -18.6908842577       -2.9309506844        0.6805757569
 O       -17.9773610486       -3.6958168468        0.0142364435
 C       -19.5191965910       -1.8991411872       -0.0930195682
 C       -18.4545937550       -1.0658204337       -1.0136577819
 O       -17.9172025444       -0.1114136168       -0.4836554882
 C       -18.1670806228       -1.5833819962       -2.3587073159
 C       -17.1987730159       -0.6056552367       -3.1597103062
 C       -15.7288549609       -0.6841779218       -2.5982109614
 O       -15.3897406948       -1.7168255893       -2.0436672148
 C       -14.6011428971        0.4320731739       -2.8366726961
 C       -13.5279375711        0.0255337071       -4.0113508516
 O       -13.6543647115       -1.0235288094       -4.5788364769
 C       -12.3191187501        0.9049467189       -4.2327382789
 C       -11.4927260209        0.3193780326       -5.3422893427
 C       -10.1062533658        1.0506829745       -5.5550612418
 O        -9.9511119954        2.2563462760       -5.4527122039
 C        -8.8726051004        0.1432462138       -5.9898728002
 C        -9.2584569742       -0.5963633171       -7.2913017908
 O       -10.2700654611       -1.1778328816       -7.4950896172
 C        -8.1839597735       -0.5723635182       -8.3689446069
 C        -8.6698811127       -0.3439195786       -9.7639549088
 C        -7.6007376123       -0.8895231994      -10.7847809932
 O        -6.4586437074       -1.0953429430      -10.4331706011
 C        -8.0045339721       -0.7409536313      -12.2631812818
 C        -7.6081301063        0.6555721496      -12.7756656133
 O        -8.1596724693        1.6654831923      -12.5364255681
 C        -6.4052536681        0.8273717943      -13.8048908088
 C        -5.9603244483        2.2923849206      -13.9161006349
 C        -4.3844367162        2.5138777329      -13.5775235057
 O        -3.5895426865        2.3353762782      -14.4743458753
 C        -3.8810244874        3.0735324284      -12.1566584497
 C        -3.0985405424        1.9400093297      -11.2488524650
 O        -2.6750323358        2.1289531440      -10.1644268599
 C        -3.2400713896        0.4948020988      -11.8027278613
 C        -2.6240415985       -0.4895994514      -10.7209594178
 C        -1.1486876712       -0.8482626409      -10.8657590364
 O        -0.4103339356       -0.4379827645      -11.7126168394
 C        -0.5899066150       -2.0481115745       -9.8265865026
 C        -0.1033176983       -3.1520148871      -10.7978227401
 O        -0.8608375688       -3.6736754255      -11.5636252052
 C         1.4498082799       -3.1860695598      -11.1093149712
 C         1.7500700691       -4.7201876419      -11.1672577807
 C         3.1956515028       -4.9567005070      -11.6783624135
 O         4.1802391464       -4.8427715628      -10.9237592042
 C         3.5365751033       -5.2700237343      -13.2090308963
 C         4.6406917400       -4.3258774903      -13.8617159386
 O         4.3399757740       -3.5917540425      -14.8249198190
 C         6.2086854599       -4.2860549496      -13.1472043173
 C         6.4705474356       -2.8571791908      -12.7934428012
 C         7.8971073778       -2.5271113409      -12.8924457218
 O         8.4571372259       -2.9101862691      -13.9231943139
 C         8.5334627038       -1.5418044490      -11.9941135651
 C         7.8903685456       -0.2370670416      -12.5199269366
 O         6.7664132702        0.0443185278      -12.2243091090
 C         8.7425827754        0.6187572361      -13.4916114809
 C         7.9425790366        1.4612965415      -14.4078205563
 C         7.2665797851        0.6161697168      -15.5608849417
 O         7.0736574510       -0.5576095284      -15.4561536037
 C         6.6643354896        1.4504194811      -16.8000897598
 C         5.7832161794        0.5115319871      -17.6679039370
 O         6.1750929348        0.2452182928      -18.8132830945
 C         4.5748216812       -0.1830748926      -17.0274953482
 C         3.9613346076       -1.4160971076      -17.7840382174
 C         5.0175700164       -2.4316492765      -18.3955193674
 O         5.9866088745       -2.8265290243      -17.7720029085
 C         4.8568166452       -2.9318704646      -19.9590177965
 C         6.2899588515       -3.2041921280      -20.6881742602
 O         6.4654170508       -4.2381875188      -21.2399806819
 C         7.3432574668       -2.1233850673      -20.6305376984
 C         8.7359742261       -2.6909581229      -20.3932507194
 C         8.9487214280       -2.9242444849      -18.8716627252
 O         8.4167128330       -2.2254934995      -18.0290084607
 C         9.9116969699       -3.9997577679      -18.3857999178
 C         8.9802049914       -5.2023980570      -17.9336927817
 O         8.3152615915       -4.9970727732      -16.9128768655
 C         8.9847642114       -6.5605416316      -18.5633567684
 C        10.9796685579       -4.3796196016      -19.4486623310
 C        10.6300017728       -3.6561736991      -17.0305885485
 C         3.9847018406       -4.2886234564      -19.9249220998
 C         4.0909626960       -1.8677141838      -20.8515428575
 C         5.7882082646        2.5544559610      -16.2794191055
 C         7.8915982037        1.9820497758      -17.5920160470
 C         7.9627122811       -1.7736533640      -10.4637497405
 C        10.1117984911       -1.4381712925      -11.9508120298
 C         4.0760616765       -6.6388418132      -13.2784257302
 C         2.2516603035       -5.1891829639      -14.0421760892
 C         0.5868664902       -1.2924159887       -8.9999282504
 C        -1.7052439597       -2.5063395271       -8.8032220734
 C        -2.9201686578        4.1702416750      -12.2938049662
 C        -4.9420489021        3.5630145254      -11.1562456562
 C        -7.2538816623       -1.7887651393      -13.0823785926
 C        -9.5356191744       -1.0451397068      -12.4452080273
 C        -7.6470856358        1.0503514420       -5.9805479043
 C        -8.7331455184       -1.0003395460       -4.9478780939
 C       -15.1125309773        1.8404835280       -3.2380101618
 C       -13.8171712388        0.4260989906       -1.4698095709
 C       -20.5414172304       -2.6112040247       -0.9022725826
 C       -20.1686357954       -0.8990345480        0.8979639906
 C       -15.8187252723       -6.3619251130        2.4674207489
 C       -14.7639549046       -4.8424470173        4.1278644670
 H       -12.4389483878       -4.0089236028        2.4157804807
 H       -12.1390100840       -4.8805830253        0.9283343599
 H       -12.5064536612       -5.8369987915        2.3333477491
 H       -17.9360448661       -4.3653706342        3.7534760830
 H       -18.1168877467       -5.1152854251        2.1365632876
 H       -18.4459200902       -2.1578563544        2.8102705760
 H       -19.7185225615       -3.1663806890        2.6689689921
 H       -19.0945474504       -1.8865413940       -2.9337694903
 H       -17.5619653879       -2.5381588486       -2.2586181401
 H       -17.6728491221        0.3947808698       -3.2395604389
 H       -17.2554793090       -0.9458830002       -4.2145630438
 H       -11.7282921754        0.9565024141       -3.2926275123
 H       -12.6844990138        1.9526362051       -4.4059315952
 H       -11.9395333903        0.2051150476       -6.3094303508
 H       -11.2834274646       -0.6921600236       -5.0139430900
 H        -7.7712032642       -1.5576446624       -8.3058188664
 H        -7.4862860367        0.1930924680       -8.0878147668
 H        -8.8034031785        0.7465468116       -9.8738380841
 H        -9.6708551077       -0.7857778976      -10.1144244566
 H        -6.5507490980        0.3720550877      -14.8068610955
 H        -5.6105923561        0.2835689508      -13.2844056447
 H        -6.5043866582        2.9532873773      -13.2342026444
 H        -6.2737431458        2.6689666888      -14.9149033112
 H        -2.6286897381        0.3110411704      -12.7131158958
 H        -4.2861226657        0.3318534806      -11.8941670824
 H        -3.2738856860       -1.3467864809      -10.7908954192
 H        -2.7889798269       -0.0727874066       -9.7203837370
 H         2.1399677488       -2.6279286910      -10.4830026831
 H         1.5416801341       -2.8441053166      -12.1376607421
 H         1.0215105668       -5.1865619622      -11.8990072601
 H         1.6830467314       -5.1048563847      -10.1266149915
 H         6.9771741309       -4.6885768819      -13.8569064352
 H         6.1606729483       -4.8629053781      -12.2603805239
 H         5.9459975596       -2.5837232459      -11.8596957804
 H         5.8806623641       -2.3031880046      -13.6149827138
 H         9.5527395160       -0.0084095591      -13.9027354549
 H         9.3613567279        1.2860141970      -12.8710644510
 H         8.7351570710        2.1142757400      -14.7590672853
 H         7.0604642592        2.0193247082      -13.9834787743
 H         3.6914969111        0.4861045532      -16.7838957648
 H         4.9165774807       -0.5490801083      -16.0723955645
 H         3.3513665085       -1.0082420601      -18.5602763106
 H         3.2517673606       -1.9425426711      -17.0477651551
 H         6.9772910434       -1.3180503258      -19.9464100730
 H         7.3586415964       -1.6756152562      -21.6513946995
 H         9.5326884545       -2.0277325640      -20.7942838646
 H         8.9119187412       -3.7046371539      -20.9740085564
 H         9.4767734798       -6.7634433858      -19.5236062783
 H         7.9704567530       -6.7911664132      -18.7628030212
 H         9.3732812400       -7.2572590330      -17.7956069088
 H        11.7778233485       -4.9367012378      -19.0245577770
 H        11.4013956091       -3.4795538317      -19.9224993791
 H        10.5581538344       -4.9705402585      -20.2322018253
 H        10.3305183929       -2.7954992590      -16.4126131545
 H        11.6971437906       -3.4306242201      -17.2468343277
 H        10.6581615216       -4.6057138774      -16.4786967036
 H         3.8846430683       -4.7334064581      -20.8993599339
 H         2.8978539929       -4.1601810727      -19.6087359370
 H         4.5137871784       -4.9595402581      -19.2889385948
 H         4.1670926368       -2.1162186003      -21.8641875977
 H         4.4237878621       -0.8506918089      -20.6268525064
 H         3.0012147743       -1.7088743715      -20.7067781875
 H         4.7988495407        2.2410935232      -15.8582414662
 H         5.4313498059        3.2242439392      -17.0172836168
 H         6.2849858503        3.2351223593      -15.5457117467
 H         7.8193893815        3.0532519404      -17.8394649367
 H         8.1352206110        1.3162948529      -18.3726430620
 H         8.7613780559        1.8551603376      -16.9519535853
 H         6.8616781481       -1.4549957688      -10.4718945509
 H         8.5833301139       -1.1681126882       -9.8017983202
 H         8.1727594569       -2.8409241518      -10.1734845523
 H        10.5004187980       -1.3651196814      -12.9503365545
 H        10.3156872685       -2.4047329752      -11.5454927192
 H        10.4532942134       -0.5710430214      -11.2897802712
 H         3.1856985201       -7.3251873622      -13.2273546023
 H         4.7498390439       -6.9969175781      -12.5035602109
 H         4.5338193316       -6.8402025748      -14.2670138935
 H         1.4775237788       -5.9147010381      -13.7353570861
 H         2.3681132715       -5.4204143619      -15.1119200683
 H         1.7478957994       -4.1997179644      -13.8872940483
 H         1.1649778194       -0.6915650380       -9.7215935719
 H         1.2166276031       -2.0718795804       -8.5062964618
 H         0.1324680447       -0.5078672882       -8.3948711467
 H        -1.2246088162       -3.2372370276       -8.1177501127
 H        -2.3616737733       -3.1437948625       -9.3794880109
 H        -2.3993594471       -1.7923963222       -8.4360375278
 H        -2.3709897921        4.1044283570      -13.2171042594
 H        -2.1705357473        4.0120456792      -11.6021864325
 H        -3.3070926700        5.1551754955      -12.1392858946
 H        -5.7195265502        2.9251625829      -10.9203050642
 H        -5.3639051604        4.5405685421      -11.4766398417
 H        -4.3067632334        3.8347439778      -10.3301113245
 H        -6.1622350396       -1.7245888060      -13.1293863969
 H        -7.5188007825       -1.6162563998      -14.1161144516
 H        -7.6555563945       -2.8217847167      -12.8503994444
 H        -9.7800429641       -2.0791376915      -12.2540657398
 H        -9.8190831533       -0.8017108394      -13.4691431760
 H       -10.2151653377       -0.4453876574      -11.8288096550
 H        -7.6878239608        1.8891629213       -6.7046613059
 H        -6.6985355179        0.6416180839       -6.2342660378
 H        -7.6335090045        1.4186901723       -4.9533809162
 H        -8.6007341894       -0.7203075420       -3.8872486095
 H        -7.8975747488       -1.6298709660       -5.2327938575
 H        -9.5478253156       -1.6729929376       -5.0603170338
 H       -15.7103596767        2.3679914938       -2.4623647412
 H       -15.8260517114        1.7903959651       -4.1487316364
 H       -14.3324978902        2.5563934653       -3.2876696099
 H       -12.9704967935        1.1083989161       -1.4482225070
 H       -13.6072245121       -0.5427511792       -1.0866423703
 H       -14.3928082712        0.7638041819       -0.6147007082
 H       -21.4368031575       -2.8015575187       -0.2484987417
 H       -20.2423663358       -3.4924349894       -1.2915276921
 H       -20.9092873132       -1.9464447930       -1.6533954771
 H       -20.8553433057       -1.4622837735        1.5565632388
 H       -20.6535146674       -0.1603255557        0.3182368338
 H       -19.3688794304       -0.6188474948        1.5624711239
 H       -16.0551210830       -6.4566681901        1.3907332565
 H       -16.6499916990       -6.4895512132        3.1528806464
 H       -15.0994882885       -7.0941710009        2.7460016463
 H       -14.2629373645       -5.7708804447        4.4100315835
 H       -15.7083266559       -4.7931377214        4.6451042915
 H       -14.0825096843       -3.9395466444        4.3466736268
 Na      -15.7712982444       -2.7622140377       -0.1954153755
 Na        7.5763770041       -2.8945783328      -15.9921447827
