232

 C       -12.6483738075       -5.0195846650        1.9995039630
 C       -14.1350174958       -4.7848373822        1.5878502073
 O       -14.3536548833       -4.5757441570        0.3549061539
 C       -15.2006050637       -4.8862282375        2.8001169673
 C       -16.3725860802       -3.7846661749        2.6222851163
 O       -15.9597839581       -2.6610184939        2.3880540608
 C       -17.8249141347       -4.1074480734        2.8373798445
 C       -18.7475360172       -3.0025983425        2.2529718257
 C       -18.7350870926       -2.8948855232        0.6784937028
 O       -17.9925470248       -3.6281283171        0.0271589524
 C       -19.6084161653       -1.8477883051       -0.1678067660
 C       -18.4731514445       -1.0018119021       -0.9066906170
 O       -17.9389424931       -0.0569439036       -0.4157791091
 C       -18.1258195723       -1.4598135440       -2.2647479580
 C       -17.1119700671       -0.5677389134       -2.9263720718
 C       -15.6141176438       -0.6705002565       -2.5779279844
 O       -15.1384813596       -1.7100926039       -2.1088423386
 C       -14.6749106229        0.5289342718       -2.8357355166
 C       -13.6229783741       -0.0446826714       -3.9793234194
 O       -13.8196998500       -1.1330402237       -4.4277255240
 C       -12.4802376570        0.9349914711       -4.3151768848
 C       -11.5109027810        0.2317703916       -5.3602184354
 C       -10.0997766122        0.9612469485       -5.5618642642
 O       -10.0798379561        2.1788592464       -5.5219459946
 C        -8.8972658094        0.1354731192       -6.0062035556
 C        -9.2925608880       -0.7198827054       -7.3198179287
 O       -10.3503549957       -1.2517353131       -7.4365502626
 C        -8.2004067639       -0.9804788679       -8.3582075493
 C        -8.7403056171       -0.6703561519       -9.8335537920
 C        -7.6760647621       -0.8311474954      -10.9188544455
 O        -6.5281773027       -0.8670561527      -10.5792285425
 C        -8.0094743746       -0.8048235530      -12.4127316541
 C        -7.5678790662        0.7222648494      -12.9027792229
 O        -8.2796326816        1.6283063826      -12.6941480526
 C        -6.2374312336        0.9802758182      -13.6525268823
 C        -5.9396806231        2.4861037975      -13.8511128280
 C        -4.4279923679        2.6947457330      -13.6542597126
 O        -3.6497271938        2.5652085017      -14.5861079769
 C        -3.9006176757        2.9249684034      -12.0704210761
 C        -3.0198180090        1.8290677433      -11.3235524029
 O        -2.3182147811        2.0880166997      -10.4126443931
 C        -3.3224127150        0.3007041324      -11.7157195244
 C        -2.6935118211       -0.6895591293      -10.6913010818
 C        -1.2017374980       -0.7935229823      -10.6152726905
 O        -0.5686013770        0.0004797318      -11.2705022217
 C        -0.5484615104       -1.9100710089       -9.6322193124
 C        -0.0696029824       -2.9782721080      -10.7448070183
 O        -0.8205043774       -3.6840943062      -11.3055520900
 C         1.4534919676       -3.2362383188      -11.0484847755
 C         1.9427295439       -4.7093908931      -10.9148862650
 C         3.2426367767       -4.8429576477      -11.7258488596
 O         4.2160618093       -4.9388911075      -10.9813785280
 C         3.3492882652       -5.1319662048      -13.1875936110
 C         4.4569354798       -4.2945222325      -13.7844934527
 O         4.1916116015       -3.4618304233      -14.6714804012
 C         5.9003816522       -4.2971803096      -13.2246803985
 C         6.2082893048       -2.9203159461      -12.6428987732
 C         7.6381426725       -2.5996858525      -12.6968151727
 O         8.4153048284       -3.1256719241      -13.5410570971
 C         8.3129964559       -1.4622790264      -11.8472978071
 C         7.7590733852       -0.1560164081      -12.5640223461
 O         6.6556744745        0.2477361942      -12.3603904427
 C         8.6832021096        0.6643984529      -13.6319301763
 C         7.8416464913        1.5482561228      -14.3924085582
 C         7.3833338251        0.7640250296      -15.7280799998
 O         7.2710721418       -0.4632623068      -15.6286530965
 C         6.7815014052        1.4684558583      -17.0361213783
 C         5.9751945099        0.4012851407      -17.8652716916
 O         6.3234176400        0.1824337764      -19.0295759343
 C         4.6981241135       -0.1517301181      -17.2942632847
 C         4.1959341092       -1.5293014756      -17.8498019492
 C         5.2512612403       -2.4741772181      -18.4887699789
 O         6.0162437047       -3.2043533519      -17.8965810639
 C         4.9524610827       -2.7642987101      -19.9911653374
 C         6.3480593146       -3.3394358407      -20.5878481944
 O         6.4537934691       -4.4866725883      -20.9336562722
 C         7.4716796353       -2.3135331358      -20.6979836925
 C         8.8101192072       -2.9307164581      -20.3783271096
 C         9.2368387822       -2.9931459453      -18.9166368386
 O         8.8883946105       -2.1106063313      -18.1611248357
 C        10.0566984049       -4.2211749456      -18.4183516626
 C         8.9919884502       -5.3647295274      -18.0221954197
 O         8.0462927535       -5.0395703267      -17.3247190803
 C         9.0272567917       -6.7848075421      -18.6043764485
 C        11.1679683725       -4.7070000102      -19.4611639685
 C        10.8676135160       -3.7180339621      -17.1957467159
 C         3.7921081921       -3.8185693909      -20.0303920193
 C         4.6091697759       -1.5643274052      -20.8187112955
 C         5.7360910716        2.5570335099      -16.6881307023
 C         8.0460716758        2.0647335633      -17.7466448077
 C         7.6237708759       -1.4291798448      -10.3649830492
 C         9.9071063681       -1.7866316310      -11.7822481412
 C         3.5811864000       -6.6442383884      -13.3506161257
 C         1.9970323633       -4.8922221768      -13.7575294964
 C         0.6419028077       -1.1977821469       -8.9134412260
 C        -1.5571583413       -2.7916569704       -8.8277045336
 C        -2.8384369984        4.0116012540      -12.1671398731
 C        -4.9924401356        3.4061731984      -11.1447228641
 C        -7.1416057854       -1.8451565973      -13.0535051810
 C        -9.5728118242       -1.1126080170      -12.9521010403
 C        -7.6952065857        1.1190794659       -6.0902563043
 C        -8.6078307052       -0.8923502441       -4.8250974740
 C       -15.2847749525        1.7959385360       -3.4641258717
 C       -14.0677121115        0.9622462533       -1.4356765445
 C       -20.5595648941       -2.5622717738       -1.1043802179
 C       -20.4286144392       -0.8080093985        0.7702190342
 C       -15.8307460053       -6.3356443561        2.7515024513
 C       -14.5693350171       -4.5879666439        4.2324945190
 H       -12.3473661566       -4.4099953580        2.8701695359
 H       -12.0387459950       -4.7270033190        1.1475545052
 H       -12.4411271146       -6.0665259456        2.1570204357
 H       -17.8386886167       -4.1048173211        3.9148331301
 H       -18.0848769296       -5.1663293155        2.3973512365
 H       -18.7349922197       -2.1715091143        3.0076577637
 H       -19.7445680607       -3.3735886876        2.4381830666
 H       -19.0656540012       -1.4373375826       -2.8557893621
 H       -17.8108241429       -2.4743547136       -2.3002496484
 H       -17.6006070413        0.3939754894       -2.8364849643
 H       -17.0471160239       -0.6704996070       -4.0059160611
 H       -12.0850390221        1.2297519053       -3.3493678594
 H       -12.9867973578        1.8001193270       -4.8428197621
 H       -12.1136311049        0.1693392063       -6.2589517752
 H       -11.2712987120       -0.8000506326       -4.9991567153
 H        -7.9975605501       -2.0703318327       -8.3982296619
 H        -7.3082786373       -0.4762738872       -7.9505495881
 H        -8.9621245451        0.3793641805       -9.8658480250
 H        -9.6221332738       -1.3042081928      -10.0053050717
 H        -6.2666266625        0.3204313444      -14.4627292864
 H        -5.6074834437        0.6329526327      -12.8025255205
 H        -6.6217849413        3.0414509684      -13.2635776391
 H        -6.1429744945        2.8397091977      -14.8363551964
 H        -2.9301823142        0.1259982925      -12.7741387783
 H        -4.4001153650        0.1513009459      -11.5532946377
 H        -3.1670979438       -1.6563931231      -10.9788658158
 H        -3.1673498749       -0.3943435758       -9.7791595537
 H         2.1279336525       -2.5590074726      -10.4812031207
 H         1.5730234020       -2.9436942770      -12.0952030993
 H         1.2467618140       -5.4590372424      -11.3231054283
 H         2.2397389875       -4.6881952767       -9.8755846493
 H         6.5115052415       -4.4075730374      -14.1687960309
 H         6.1043865881       -4.9945155166      -12.4300836892
 H         5.8446521544       -2.8806827650      -11.6176572741
 H         5.7058950111       -2.1149959886      -13.0749070416
 H         9.2065045830       -0.0773918589      -14.2256862030
 H         9.4481359919        1.0662935116      -13.0512318843
 H         8.3803583124        2.4945023592      -14.7634677567
 H         6.9125692016        1.7450338420      -13.8792894216
 H         3.9131048872        0.6283787922      -17.4786766269
 H         4.7813195342       -0.1694495370      -16.2055602343
 H         3.5395455759       -1.2359862089      -18.6264360706
 H         3.6311218521       -2.0687163322      -17.1081403998
 H         7.1697822006       -1.5515396859      -20.0326378812
 H         7.5117342814       -1.8551055865      -21.6940791644
 H         9.5260320660       -2.4629260774      -21.0733908032
 H         8.6300127221       -3.9857860570      -20.6253151565
 H         9.9932674755       -6.9356714433      -19.0532869886
 H         8.4511239726       -6.9928007086      -19.4507125189
 H         8.8886647863       -7.5159875324      -17.7440997077
 H        11.7863754542       -5.4253007874      -19.0303803391
 H        11.7543336365       -3.7966403461      -19.8829941537
 H        10.8059334924       -5.2735965090      -20.3197138597
 H        10.4097733891       -3.6510086368      -16.1728884025
 H        11.2472462298       -2.7620134271      -17.5561331290
 H        11.6626654795       -4.4267003917      -16.9169497762
 H         3.6747496229       -4.0809443373      -21.0677878200
 H         2.7815519846       -3.3466757417      -19.8781270591
 H         3.9474749037       -4.6446694717      -19.4123781890
 H         4.4663980147       -1.8640152150      -21.8320819509
 H         5.1615148736       -0.6583316137      -20.6698512491
 H         3.5770911802       -1.2083745332      -20.5964444216
 H         4.9144307860        2.3370100752      -16.0581376723
 H         5.2798889845        2.9613341436      -17.5445129601
 H         6.1691912121        3.4013751637      -16.1805954800
 H         7.9156182483        1.6749450426      -18.7864459723
 H         8.9154178029        1.5736961868      -17.3297211350
 H         8.2268033896        3.1312986944      -18.0112479646
 H         6.8804268311       -0.6659915236      -10.3308512686
 H         8.4436955971       -1.3779781121       -9.7818868987
 H         7.1725026503       -2.3845666574      -10.0613456632
 H        10.3533156241       -1.8685815253      -12.7655438474
 H        10.0451405582       -2.7135741585      -11.2178190266
 H        10.2839591580       -0.8823221859      -11.2613218103
 H         2.9320656402       -7.2099523016      -12.6366967874
 H         4.5226751781       -7.0482769881      -13.0910519233
 H         3.2201594575       -6.9649633861      -14.2805884447
 H         1.1734816047       -5.2869166369      -13.2356620092
 H         1.8483686577       -5.1564238813      -14.7870952939
 H         1.9728662458       -3.7762661736      -13.7778638640
 H         1.1609396319       -0.4782069571       -9.5158894730
 H         1.3083301041       -1.9678232223       -8.6245742006
 H         0.1427243307       -0.6652605387       -8.1247191326
 H        -1.1144234499       -3.6702478848       -8.3322682639
 H        -2.4410124014       -3.0275191210       -9.3715735057
 H        -1.9533317688       -2.1332915197       -8.0314685856
 H        -1.7925449198        3.6445604604      -12.3535934961
 H        -2.7631210833        4.6798852421      -11.3028883180
 H        -3.0682979633        4.7368197732      -13.0297606287
 H        -5.6862304438        2.5602487419      -10.9691970018
 H        -5.6307547870        4.1665013867      -11.6529768221
 H        -4.5644214352        3.8672629728      -10.2383170555
 H        -6.1664878047       -1.7621953555      -12.6761888628
 H        -7.0545746548       -1.7817033745      -14.0890340703
 H        -7.6268612665       -2.8451093130      -12.9121614238
 H       -10.0684791647       -1.8998594639      -12.3352887376
 H        -9.5660739988       -1.4692455635      -13.9701331373
 H       -10.2640315160       -0.2914438961      -12.8342467253
 H        -7.5721786587        1.4629790912       -7.1093300177
 H        -6.7049704833        0.6664628282       -5.8759275377
 H        -7.7439165818        1.9023378276       -5.3506853115
 H        -8.6340649883       -0.2811221608       -3.9489241658
 H        -7.6222316670       -1.4659615039       -4.8633765990
 H        -9.3996019547       -1.6146967678       -4.6279531626
 H       -16.0485680457        2.2098802427       -2.8508875875
 H       -15.7829344976        1.4998945603       -4.3956764208
 H       -14.4821801059        2.5222006844       -3.6033920128
 H       -13.0696385135        1.4711919584       -1.6808326512
 H       -13.9265944051        0.1982632329       -0.7343430614
 H       -14.6489735722        1.6290992804       -0.7990121954
 H       -21.1795912543       -3.3861625541       -0.5848862534
 H       -19.9588344134       -3.1206352718       -1.7690378799
 H       -21.2210527171       -1.8883409365       -1.6630121788
 H       -21.1117563976       -1.2695170603        1.5873611284
 H       -21.1156071760       -0.2213649524        0.1602944415
 H       -19.6319459770       -0.2078712752        1.2577639070
 H       -16.5311463377       -6.4908793318        1.9544176178
 H       -16.3118465682       -6.4821863826        3.7792362756
 H       -15.0445907667       -7.0644519404        2.8630279392
 H       -13.7189478337       -5.2051799221        4.4009856066
 H       -15.3164473023       -4.7997961634        4.9368483611
 H       -14.3351835367       -3.5139844049        4.2921047738
 Na      -15.7612673084       -3.0053452983       -0.2176485066
 Na        7.5638681833       -2.9694804448      -16.1367484770
