232

 C       -12.6623756711       -5.1464255955        2.0659068943
 C       -14.1004479357       -4.7682763727        1.6545763693
 O       -14.3803924739       -4.4633507035        0.5654089290
 C       -15.1674256693       -4.8325262930        2.8502609510
 C       -16.2502162485       -3.7352654448        2.5964488600
 O       -15.9510957865       -2.5656546725        2.3022863018
 C       -17.7964097476       -4.0916964532        2.7726618633
 C       -18.7833960064       -2.9739148731        2.1929103324
 C       -18.7549061920       -2.9117431032        0.7049232946
 O       -17.9909433302       -3.6500420079        0.0780197149
 C       -19.5687724812       -1.8286583179       -0.0950570784
 C       -18.5232840831       -0.9809673393       -0.8874202558
 O       -17.9474252178       -0.0309169769       -0.3202186023
 C       -18.0855990379       -1.4780924588       -2.2769057354
 C       -17.0943233088       -0.5444292490       -3.0563551230
 C       -15.6148094712       -0.5783702951       -2.5075351294
 O       -15.1809533383       -1.5516553904       -1.9206103984
 C       -14.6381260437        0.5835143552       -2.8727097026
 C       -13.6083566639       -0.0273629017       -3.8618850671
 O       -13.9109576828       -1.1096163944       -4.3196284453
 C       -12.4525879550        0.8108238065       -4.3869490226
 C       -11.4906019430        0.1103000388       -5.3530224120
 C       -10.2134222665        0.9402308288       -5.5704040431
 O       -10.1940872400        2.1593006735       -5.4956870716
 C        -8.9328358140        0.1692763508       -5.9807655858
 C        -9.2580702394       -0.7334706111       -7.2543803903
 O       -10.3488877770       -1.1962630838       -7.3544777176
 C        -8.1977171627       -1.0917729992       -8.4051825379
 C        -8.8331333074       -0.8041784998       -9.7507386170
 C        -7.7050127875       -0.7546885438      -10.8899707198
 O        -6.5130060792       -0.7624514043      -10.6217461825
 C        -8.0846381504       -0.8094371969      -12.6171349993
 C        -7.7772372263        0.6870266169      -13.0102582466
 O        -8.3764738451        1.6931915641      -12.6399466835
 C        -6.2768805767        0.9067703653      -13.7224880323
 C        -5.8702040846        2.3563198460      -13.8177444702
 C        -4.3225348034        2.5886305431      -13.5647076933
 O        -3.6417657554        2.5968448867      -14.5560231991
 C        -3.7723686047        2.9237353103      -12.1365866444
 C        -3.0170920004        1.7568699145      -11.3051461023
 O        -2.2350127800        2.1022370137      -10.4490893522
 C        -3.3851096822        0.2904821358      -11.6010979463
 C        -2.7830158240       -0.7747149135      -10.7137747229
 C        -1.2651718610       -0.7541501838      -10.6068055097
 O        -0.4031994570        0.0197232479      -11.0149734171
 C        -0.5387220816       -1.9185695849       -9.6820140112
 C        -0.0118006019       -2.9836392956      -10.6790362051
 O        -0.7963628784       -3.7701188173      -11.2294304308
 C         1.5032983781       -3.0432745400      -11.0385478912
 C         1.8694091999       -4.5697130045      -10.8663935455
 C         3.2794045824       -4.9388451112      -11.5341994582
 O         4.3573553407       -4.9329899546      -10.9427534152
 C         3.1572224308       -5.1628449091      -13.1340335817
 C         4.2845423801       -4.2717987401      -13.8189089212
 O         4.0763977874       -3.4268297227      -14.6624589668
 C         5.8394609151       -4.3522240722      -13.3507251339
 C         6.0947522713       -3.0111533951      -12.6190042221
 C         7.6172476489       -2.5911366381      -12.7369721693
 O         8.2481669203       -3.1113724294      -13.6554238622
 C         8.2763786223       -1.4164542989      -11.7836675585
 C         7.8097978809       -0.1715980179      -12.5259325191
 O         6.6715002650        0.2143620272      -12.3095739836
 C         8.6676926798        0.6146598293      -13.6114916181
 C         7.8935479427        1.4746445803      -14.5949727785
 C         7.2853521991        0.7244679167      -15.7655100281
 O         7.4077824158       -0.4423546190      -15.7240693416
 C         6.8835462461        1.4349835264      -17.0451024074
 C         6.0561909308        0.3757501524      -17.8824971511
 O         6.3611614562        0.1171840957      -19.0294215862
 C         4.8332036886       -0.1989216638      -17.2399453468
 C         4.2757338610       -1.5177988956      -17.7309836745
 C         5.1362744986       -2.4427443180      -18.5780644942
 O         6.0083099096       -3.0687940705      -17.9573530972
 C         4.9668513350       -2.7330264231      -20.0951562353
 C         6.3871792713       -3.4181064772      -20.5353055813
 O         6.5800117198       -4.5444594638      -20.7835970782
 C         7.5360975091       -2.4174067044      -20.5915994578
 C         8.8831709242       -3.0678417695      -20.5067654475
 C         9.3029962125       -3.1620623076      -18.9875348012
 O         8.9980777478       -2.2491221191      -18.2191316114
 C        10.1640029292       -4.2583678334      -18.4162022975
 C         9.0664812520       -5.3238991023      -18.0422160590
 O         8.1214542997       -4.9693321033      -17.3213406298
 C         9.0497758672       -6.7521988067      -18.5621626626
 C        11.1681673904       -4.8080532350      -19.5221582233
 C        10.7840274202       -3.8017274830      -17.0896219370
 C         3.7583637487       -3.6861713868      -20.1165455178
 C         4.7055746731       -1.4838856299      -20.9409356290
 C         5.7849772355        2.5659328991      -16.7537405869
 C         8.0581916112        1.9952619887      -17.8392090134
 C         7.6265813463       -1.4236416717      -10.3772255022
 C         9.7472432311       -1.4831115762      -11.7149103013
 C         3.4749837485       -6.6556235890      -13.4289502695
 C         1.7392729458       -4.8147667910      -13.8428404418
 C         0.5148778616       -1.1664266366       -8.9275043554
 C        -1.4646067354       -2.7040725173       -8.7522549277
 C        -2.7463297802        4.2257012242      -12.0905235021
 C        -4.9764821907        3.3125262662      -11.1818436810
 C        -7.1142327281       -1.7954613068      -13.3179456188
 C        -9.5051076272       -1.2322010729      -12.9210190616
 C        -7.7456790497        1.1240032788       -6.1562602239
 C        -8.5990049936       -0.8814493181       -4.8757299862
 C       -15.3246060465        1.8156710585       -3.5751787699
 C       -14.0484139167        1.0392527069       -1.5563305134
 C       -20.5380440791       -2.6413111646       -1.0849104941
 C       -20.4556730880       -0.8555428771        0.8023948353
 C       -15.7437851557       -6.3253965287        2.9148180989
 C       -14.6200458136       -4.5845587164        4.1797106433
 H       -12.3319184122       -4.4124920669        2.7993350101
 H       -12.0887276984       -5.0209632447        1.1030948141
 H       -12.5367525772       -6.1099970031        2.4988823522
 H       -17.8928726029       -4.2055363786        3.8580772516
 H       -18.0715325606       -5.0258014143        2.2224605504
 H       -18.4668825518       -1.9643651581        2.6094987414
 H       -19.7785271171       -3.0799692652        2.6935855522
 H       -18.9983414529       -1.7652598463       -2.8841216165
 H       -17.5703381944       -2.4774869009       -2.0539875483
 H       -17.6265942539        0.4005263046       -2.8531856666
 H       -16.9609741202       -0.5401218196       -4.1410065367
 H       -11.9268276578        1.3033134394       -3.5094258604
 H       -13.0611458519        1.5609473197       -4.9885544663
 H       -12.0335114976        0.0249581708       -6.2767111806
 H       -11.2034679214       -0.8674778189       -4.9851185306
 H        -7.9073196373       -2.1352203391       -8.3937501873
 H        -7.2769589508       -0.5301337189       -8.1669206401
 H        -9.3327024277        0.1577292031       -9.6646924952
 H        -9.4924565289       -1.7073099780       -9.9977978058
 H        -6.5093356090        0.3973574064      -14.6705135407
 H        -5.6077145050        0.3466778628      -13.1249155725
 H        -6.6274814115        2.9503368513      -13.3862634333
 H        -5.9009476746        2.6680685317      -14.8438323076
 H        -2.8975686148        0.2602160481      -12.6330338998
 H        -4.4745143238        0.1936603606      -11.5657577680
 H        -3.0412476563       -1.7240211384      -11.1507859219
 H        -3.3283290629       -0.6869027220       -9.7667456984
 H         2.0142758233       -2.3576700093      -10.3741254205
 H         1.7005857317       -2.7061035576      -12.0692635278
 H         1.0705709536       -5.0441947051      -11.5285734365
 H         1.8534296207       -4.6436487184       -9.7907265201
 H         6.4383109760       -4.3215856737      -14.2879229773
 H         6.1163041239       -5.0584961295      -12.6143479817
 H         5.6770165026       -3.0939741312      -11.6307125434
 H         5.5301063039       -2.1386761724      -13.0262845903
 H         9.1936730936       -0.2185232152      -14.0496133575
 H         9.4136261842        1.1789371554      -13.0561505842
 H         8.4922781227        2.1035078108      -15.1709589997
 H         7.1336575431        2.0492200847      -13.9686552448
 H         3.9991487456        0.5911856454      -17.2611715637
 H         4.9867639586       -0.3226466250      -16.1686446658
 H         3.3799174652       -1.2862775874      -18.2114494917
 H         4.0473701198       -2.0804050623      -16.7958393369
 H         7.4887455923       -1.6028937970      -19.8221002553
 H         7.3603971794       -1.8970723323      -21.5430099122
 H         9.5274587568       -2.3583964974      -21.0165961974
 H         8.8089917909       -4.1328145189      -20.9712888309
 H        10.0661525869       -7.1653309182      -18.8540163378
 H         8.6425523704       -6.7824774807      -19.5474088472
 H         8.5227484314       -7.3515463316      -17.8691896892
 H        11.9269945721       -5.5211906044      -19.2098600405
 H        11.5623314863       -4.0089341480      -20.0492913407
 H        10.6664505973       -5.4129825544      -20.2286950153
 H        10.2260604276       -4.0623635230      -16.1831446034
 H        10.9640631901       -2.6643073875      -17.2225301184
 H        11.6754372270       -4.3712204718      -16.7688469344
 H         3.4207278134       -3.7090498283      -21.1222020879
 H         2.8921610097       -3.1574763616      -19.6651021898
 H         3.8714546682       -4.6540764162      -19.6710026188
 H         4.5562168855       -1.7216258911      -21.9534532326
 H         5.3838725917       -0.6156524455      -20.8174549890
 H         3.7367640764       -1.0493408016      -20.6546300968
 H         5.1058908437        2.2865259241      -15.9693975984
 H         5.2136587523        2.8230555138      -17.5764911258
 H         6.1352633897        3.4557178678      -16.3397804791
 H         8.2966998784        1.3376428394      -18.7306213226
 H         8.9744822747        2.1446844227      -17.2373150238
 H         7.7661646670        2.8444704143      -18.4207712646
 H         6.6414059857       -0.9628618023      -10.5821819676
 H         8.4095637562       -0.9119080876       -9.7822965146
 H         7.4818446934       -2.3818982913       -9.9225990173
 H        10.1944107478       -1.6278542862      -12.7038873411
 H         9.9499768103       -2.3403762252      -11.0896421468
 H        10.0792017253       -0.4672654506      -11.2233643055
 H         2.8458392075       -7.3615520781      -12.9323589281
 H         4.4184013609       -7.0062390108      -13.1113684473
 H         3.2511035644       -6.8353915862      -14.4668612231
 H         0.8331077775       -5.3311776687      -13.4006313717
 H         1.7311061703       -5.0925313121      -14.9358589956
 H         1.5618259892       -3.7248567251      -13.9421333016
 H         0.8500199854       -0.2850885127       -9.4201632914
 H         1.3876248167       -1.7898138370       -8.7670920392
 H        -0.0125056734       -0.9059681147       -8.0372729564
 H        -0.8318165296       -3.4513011050       -8.1869221337
 H        -2.3592880549       -3.1661017274       -9.1169921238
 H        -1.6977000337       -2.0738931554       -7.9301997228
 H        -1.6596126153        3.9977457108      -12.2758793306
 H        -2.7962076041        4.7109274243      -11.1296925862
 H        -2.9918732050        5.0178872328      -12.7950725218
 H        -5.8641269926        2.8111815089      -11.4557619000
 H        -5.2311501307        4.4379136513      -11.2504318574
 H        -4.6719186324        3.1092431082      -10.1211197313
 H        -6.1094642064       -1.6056316703      -12.9919215235
 H        -7.1229962608       -1.8470955808      -14.3734956420
 H        -7.4631200815       -2.7593803606      -13.0359417254
 H        -9.7998556718       -1.9997772753      -12.2089128577
 H        -9.6211224583       -1.7116110275      -13.9183061166
 H       -10.3187758503       -0.4793372373      -12.7498732900
 H        -7.5382532906        1.4694610804       -7.2189759824
 H        -6.8238742898        0.7379330172       -5.7938971999
 H        -7.8773499450        1.9611988793       -5.4523535104
 H        -8.4159666576       -0.5080300121       -3.8293073697
 H        -7.8243770198       -1.5149127208       -5.2104988564
 H        -9.4604483092       -1.5012606565       -4.7284778008
 H       -15.7743268177        2.4603693599       -2.7608549521
 H       -16.2065387709        1.5025535204       -4.2344494963
 H       -14.5983685547        2.2955556265       -4.1721169532
 H       -13.4268548260        1.8258668867       -1.8328980431
 H       -13.4143074554        0.3203473830       -0.9909794296
 H       -14.7468975902        1.3456794470       -0.7705562256
 H       -21.0816657699       -3.4489335123       -0.5723666915
 H       -19.9912543049       -3.1295065831       -1.8275446258
 H       -21.2476158273       -1.9552706114       -1.5388788138
 H       -20.9446101895       -1.2767162959        1.6682494457
 H       -21.2877935140       -0.4012349301        0.1782695713
 H       -19.6542388673       -0.0643113611        1.1276107996
 H       -16.2456335906       -6.5859046541        1.8940328466
 H       -16.4366008011       -6.4855067125        3.6831639138
 H       -14.9210815990       -6.9154715536        3.1958952191
 H       -13.9614325338       -5.3995907773        4.4321844598
 H       -15.4524077427       -4.5741728222        4.8622288090
 H       -14.1492565614       -3.5720389110        4.2241145193
 Na      -15.7961108066       -3.0583063629       -0.2941246406
 Na        7.5910585735       -2.9586899053      -16.2101916012
