232

 C       -12.7298363389       -5.4325836327        2.2599808685
 C       -14.0183771750       -4.7865395532        1.8950547181
 O       -14.2058825141       -4.3083572587        0.7260123147
 C       -15.1597590925       -4.7441378354        2.9373193310
 C       -16.2817826242       -3.6819958729        2.5921699179
 O       -15.9199249168       -2.7340205370        1.9404674377
 C       -17.7098563554       -4.0228160572        2.7522503134
 C       -18.5602633032       -2.8844739970        2.1996923364
 C       -18.6813247893       -2.9063071702        0.6653080833
 O       -18.0187277589       -3.7653558162        0.0710955344
 C       -19.6397133474       -1.9014997121       -0.0142040688
 C       -18.4749256983       -0.9549039708       -0.9225505876
 O       -18.0107716192       -0.0188357759       -0.3853052900
 C       -18.1111123626       -1.5254379779       -2.2795280409
 C       -17.1568505490       -0.5209780942       -2.9087853864
 C       -15.7592220460       -0.3739330507       -2.3393343695
 O       -15.3137471311       -1.0004581256       -1.3839751217
 C       -14.7104636081        0.7222722435       -2.9296421352
 C       -13.7366627011       -0.0471737055       -3.9177464886
 O       -13.8282778854       -1.1774400573       -4.2835473799
 C       -12.4871542531        0.8200228598       -4.3360956598
 C       -11.5724282114       -0.0781690225       -5.2021221082
 C       -10.2346906879        0.7612226584       -5.5487736485
 O       -10.3278495127        1.9606330109       -5.4969130330
 C        -8.9844666989        0.0750404576       -6.1116077777
 C        -9.3137884128       -0.7847808049       -7.4752759705
 O       -10.3625269257       -1.3823344898       -7.5465878678
 C        -8.2331257926       -0.8852787852       -8.5414765479
 C        -8.7899973755       -1.0109969616       -9.9757230268
 C        -7.5665166429       -0.8402816823      -11.0081126544
 O        -6.4452214732       -0.5468950459      -10.6634527484
 C        -8.1075240225       -0.8851242636      -12.5236823137
 C        -7.6790610908        0.6652200723      -12.9468007189
 O        -8.5381918499        1.4593504929      -12.7492250418
 C        -6.3947258465        0.9738781719      -13.7689402162
 C        -5.7186270108        2.4348334239      -13.8937133633
 C        -4.2831733902        2.5516963541      -13.4271247835
 O        -3.3890087362        2.4908003087      -14.2606442994
 C        -3.8017180818        2.8683069290      -11.9515269291
 C        -2.9474608550        1.7482344835      -11.2841414132
 O        -2.1289838112        2.0678893956      -10.4885383269
 C        -3.3784107326        0.2701910564      -11.6666072279
 C        -2.7804702780       -0.7913559075      -10.6995313633
 C        -1.2424265396       -0.6518810579      -10.5083541379
 O        -0.5536073218        0.1611779669      -11.0343422288
 C        -0.4980044486       -1.8038714876       -9.5027936749
 C         0.0209772909       -2.8775595615      -10.4786423428
 O        -0.6805134505       -3.6664198000      -11.0502317618
 C         1.4791734127       -2.9604157045      -10.9216414484
 C         1.9827779574       -4.4130177352      -10.7707404589
 C         3.1148813281       -4.8751954850      -11.6234414418
 O         4.2346760858       -5.0530722367      -11.1206165117
 C         3.0219030565       -5.1552890200      -13.1754799439
 C         4.1041103740       -4.0994558040      -13.8527881369
 O         3.6883909222       -3.3373424758      -14.7343961583
 C         5.5968709096       -4.2256094196      -13.5144231491
 C         6.1825055456       -3.1190093849      -12.5847172679
 C         7.4964150013       -2.5657116711      -12.9016702272
 O         8.1904957851       -2.7305345516      -13.9109126526
 C         7.9668208150       -1.4006169329      -11.9254305844
 C         7.5657245952       -0.0234208304      -12.6086743150
 O         6.4795963225        0.4365401572      -12.4554871955
 C         8.6002405425        0.4906493279      -13.5885882822
 C         8.0176441694        1.3371628656      -14.6997107590
 C         7.5869378984        0.6467025769      -15.8831360376
 O         7.6483901065       -0.6155246604      -15.8753376694
 C         6.8924043833        1.4351720458      -17.0301409782
 C         6.0703443842        0.2564390173      -17.8098915947
 O         6.3628353748       -0.1080474975      -18.9379183744
 C         4.8929291610       -0.3927743811      -17.1364964570
 C         4.1840379477       -1.5539503365      -17.9217593362
 C         5.1932051292       -2.3829226000      -18.6450232978
 O         6.1648026784       -2.7914331633      -18.0648731886
 C         5.0908548574       -2.6371826896      -20.1212179751
 C         6.4446519560       -3.3573362697      -20.4063733395
 O         6.3971970789       -4.5678990550      -20.4248850122
 C         7.6249774214       -2.5132924919      -20.7778030776
 C         8.9965994066       -3.1871275808      -20.4850726148
 C         9.3622122045       -3.1572972037      -19.0021028586
 O         8.9950839801       -2.2902155033      -18.2472000405
 C        10.2074176086       -4.4375590360      -18.4236104397
 C         9.0360227335       -5.4621487483      -17.9794019254
 O         8.2682518941       -5.1243273701      -17.1035888451
 C         9.0200275674       -6.7886870848      -18.6051029416
 C        11.2579070190       -5.0677430755      -19.3760088292
 C        11.0604354570       -4.0216933197      -17.1304626237
 C         3.8960696682       -3.6475722826      -20.4098967917
 C         4.8087100225       -1.4505336073      -20.9938007184
 C         6.1001281884        2.5572201994      -16.6260268719
 C         8.1027089042        1.8884771934      -18.0149366329
 C         7.4494885094       -1.5337242811      -10.4810793063
 C         9.6565521234       -1.4361562998      -11.8028852241
 C         3.4258953013       -6.5359894189      -13.4190622371
 C         1.6320817907       -4.8081756499      -13.7660559593
 C         0.6234658055       -1.2663389238       -8.6445509959
 C        -1.6253613655       -2.5215589486       -8.6528150294
 C        -2.9761766651        4.0922103256      -12.2206715600
 C        -4.9457110750        3.2529071943      -10.9126168107
 C        -7.1920660112       -1.9118008795      -13.2818380873
 C        -9.6718690474       -1.1216217256      -12.7159570627
 C        -7.8481764607        1.1711286280       -6.3392009696
 C        -8.4652665905       -0.8502416874       -5.0004089746
 C       -15.4783333235        1.8241256438       -3.6205623034
 C       -13.8576618597        1.2788827965       -1.8112006361
 C       -20.5090348881       -2.7619143802       -0.9764651604
 C       -20.3894313995       -0.9739284910        0.8948941478
 C       -15.7396504363       -6.1474239584        2.9006578217
 C       -14.6059092896       -4.2805146325        4.4389748018
 H       -12.0299667457       -4.6370562703        2.5953589804
 H       -12.3780420156       -5.9819890506        1.4078710592
 H       -12.8887365520       -6.0330901568        3.1956147033
 H       -17.9690403146       -4.2074208080        3.7992149942
 H       -17.9955021404       -4.8789797294        2.1395789358
 H       -18.2939414251       -1.9293682586        2.6048633234
 H       -19.4764074780       -3.0925346472        2.7290042632
 H       -18.9564813663       -1.6352878283       -2.9435523441
 H       -17.6323663562       -2.4850673419       -2.3097622534
 H       -17.6852238491        0.4451730566       -2.9260216221
 H       -17.0061357813       -0.7771653503       -3.9796551665
 H       -11.9009518940        1.1193180735       -3.5202188219
 H       -12.9419307719        1.6219733391       -4.8541779292
 H       -12.0714065642        0.0023592767       -6.1786039295
 H       -11.5063597505       -1.1063849877       -4.7861142718
 H        -7.5813447831       -1.7378052067       -8.2528605617
 H        -7.4962458060       -0.0859512642       -8.4696824134
 H        -9.5198545503       -0.1798251311      -10.0804812620
 H        -9.1529803458       -1.9927780872      -10.0858866886
 H        -6.7393403254        0.6493324701      -14.7531858143
 H        -5.6203874256        0.2546687970      -13.3572192299
 H        -6.2193677421        3.3218437296      -13.3568470631
 H        -5.7938199812        2.7330842994      -14.9707341580
 H        -2.9471716803        0.1273660709      -12.6042077389
 H        -4.4614611922        0.2655708566      -11.6564476231
 H        -2.9213978591       -1.7798961533      -11.2063484580
 H        -3.3771597424       -0.7819791797       -9.7918732536
 H         2.1515154714       -2.2032339897      -10.5038059514
 H         1.3934405770       -2.6896073925      -11.9674302998
 H         1.1259175493       -4.9835071468      -10.9609767018
 H         2.3925278893       -4.3382363139       -9.7547063601
 H         6.2597023222       -4.1400036366      -14.3543305584
 H         5.6394911277       -5.1681144108      -12.9358630192
 H         6.2894434797       -3.5140607643      -11.5301496517
 H         5.5043926024       -2.2633507125      -12.3898282851
 H         9.4264715911       -0.2582521335      -13.7732244989
 H         9.1340523048        1.3372474174      -13.0433847801
 H         8.9114657908        1.9244525039      -15.1425896904
 H         7.2618990729        1.9554073771      -14.3175323288
 H         4.2421187783        0.4279195005      -16.9953565902
 H         5.0519574241       -0.7607434789      -16.1070777566
 H         3.3988044123       -1.1125171570      -18.6371004415
 H         3.7020418410       -2.1841458354      -17.1730665495
 H         7.6509303164       -1.5344061223      -20.3047036190
 H         7.3789594528       -2.3298152998      -21.8556538889
 H         9.7744325244       -2.5255123723      -20.9704953479
 H         9.0070222994       -4.2211741206      -20.7180270004
 H         9.7822575080       -7.3777423799      -18.1925529327
 H         9.3781215411       -6.8041613387      -19.6328400491
 H         7.9802430136       -7.2264481991      -18.4357119956
 H        11.7530616192       -5.9068840703      -18.9931727558
 H        12.0627561757       -4.2545346844      -19.5850968202
 H        10.9440764773       -5.4044340042      -20.3748865672
 H        10.4752282515       -4.1200905595      -16.2244466453
 H        11.5011597644       -3.1077888576      -17.2659081926
 H        11.7991656468       -4.7367663941      -16.8301170623
 H         3.5064770101       -3.6078482407      -21.4610169793
 H         3.1010913102       -3.4352926946      -19.6940844907
 H         4.2289436848       -4.6496820316      -20.1337558663
 H         4.6138965038       -1.7592838496      -22.0577065767
 H         5.5972929229       -0.7121157490      -21.0690667300
 H         3.9070757928       -0.9221614845      -20.6689919658
 H         5.3400883717        2.4645112184      -15.8406040803
 H         5.6633139310        3.0647202804      -17.5393601738
 H         6.6893892607        3.3766492824      -16.1021179550
 H         9.0550804890        1.4339715969      -17.8524620299
 H         8.3439743804        2.9163940965      -17.7721988401
 H         7.8694135183        1.7604437308      -19.0905386510
 H         6.5893742190       -2.1854379715      -10.4378819946
 H         7.4352763679       -0.5935046593       -9.9936062304
 H         8.2886685601       -2.1172741153       -9.9829410900
 H        10.1276218488       -1.6493811500      -12.7501044161
 H         9.8966237087       -2.2510850187      -11.1190538223
 H         9.9503238335       -0.5152926205      -11.4250170204
 H         2.6753149878       -7.3564256653      -13.3004529987
 H         4.1522936858       -6.8200627449      -12.6376314593
 H         3.7591897883       -6.7454692394      -14.4284477700
 H         0.9231237990       -5.4934727324      -13.3961255628
 H         1.6178552864       -4.9600842301      -14.8431206385
 H         1.3254869498       -3.7519000399      -13.7638256184
 H         1.4343827977       -1.0436019793       -9.3591424868
 H         1.0025157721       -2.0899505826       -7.9947363444
 H         0.2371011940       -0.4385810761       -8.0009342898
 H        -1.1384328953       -3.0351240891       -7.8374802417
 H        -2.1290781012       -3.3105566200       -9.2409929303
 H        -2.2778811567       -1.8787666141       -8.0078216592
 H        -2.4237739472        3.9793704918      -13.1032349589
 H        -2.3018986412        4.2992753633      -11.4271979311
 H        -3.5098750763        5.0071400735      -12.3778841006
 H        -5.7709462335        2.4968411205      -10.8073696664
 H        -5.3855041740        4.1618213304      -11.1658498500
 H        -4.4688823783        3.3182614163       -9.9629227198
 H        -6.1381026063       -1.9081457117      -12.9575040382
 H        -7.2132516723       -1.7499228420      -14.3831853891
 H        -7.6330748715       -2.9567454034      -13.1577711505
 H       -10.0094372605       -2.1678895370      -12.5327887050
 H        -9.9742789960       -0.8812433601      -13.7121326735
 H       -10.2542321910       -0.5495912008      -12.0409706785
 H        -8.0599128907        1.7534780392       -7.2085634259
 H        -6.8544074635        0.6520622247       -6.4638832474
 H        -7.6481318436        1.8385925265       -5.5083275857
 H        -8.2695525907       -0.3169567543       -4.1288153470
 H        -7.4978291334       -1.3226652356       -5.3248022136
 H        -9.1786450357       -1.5886704103       -4.6309993537
 H       -16.2287315601        2.1941322715       -2.9506467238
 H       -15.8933667364        1.5435037575       -4.5822498248
 H       -14.6689671668        2.5708916999       -3.9109383744
 H       -13.4792581442        2.3629229415       -1.8775154491
 H       -12.9269519470        0.7501286868       -1.6982631739
 H       -14.4086507825        1.1400513545       -0.8879785443
 H       -21.4687830089       -3.0800412145       -0.4970842664
 H       -20.0271506559       -3.7000117009       -1.2563412171
 H       -20.7976703150       -2.2462860917       -1.8870493428
 H       -21.0550565161       -1.5648379543        1.5517026180
 H       -20.9981717039       -0.3005761716        0.3394335766
 H       -19.6855617456       -0.4063141367        1.3969972200
 H       -16.1152551185       -6.3939898832        1.9731080623
 H       -16.6969056003       -6.1071759169        3.5132401152
 H       -15.0518381064       -6.9212400359        3.3064005925
 H       -14.0333561669       -5.0793050269        4.9579191807
 H       -15.5007975827       -4.0612551417        5.0585012223
 H       -14.1000780972       -3.3229728663        4.3570178694
 Na      -15.9373301436       -3.0293201905       -0.4043181586
 Na        7.7408332297       -2.8263567433      -16.3285617353
