232

 C       -12.7049992644       -5.6817279468        2.4007889375
 C       -13.8743796802       -4.8115633304        2.0017530629
 O       -13.8801917190       -4.2271863432        0.8869803777
 C       -15.1186008910       -4.7053917588        2.9571175247
 C       -16.2813747977       -3.6478385276        2.4766038317
 O       -15.8428728232       -2.6817506045        1.8922300102
 C       -17.7727876169       -3.8156944197        2.9922156639
 C       -18.7228721813       -2.8963408429        2.2693928978
 C       -18.7489208186       -3.0389635306        0.7645894763
 O       -18.0444785262       -3.8641754566        0.1837262338
 C       -19.6528916166       -1.9398220958       -0.1435637035
 C       -18.5679808004       -0.9288056148       -0.9868027113
 O       -18.2619897876        0.0793432509       -0.4436776439
 C       -17.9577908544       -1.5186487211       -2.2023106400
 C       -17.0136127195       -0.5700775674       -2.9406435187
 C       -15.7620700331       -0.2146015345       -2.1703498155
 O       -15.4892196844       -0.6669205894       -1.0627583073
 C       -14.7563750063        0.8453260800       -2.8160051841
 C       -13.8204965045       -0.1186656174       -3.6971212731
 O       -14.2364665825       -1.1582019743       -4.1236270698
 C       -12.6665910814        0.5955889471       -4.5158443026
 C       -11.5797688074       -0.3214729442       -5.0782162617
 C       -10.3787979763        0.6203785292       -5.5848668812
 O       -10.5698197007        1.7881604203       -5.5067814287
 C        -8.9733723477        0.0843167201       -6.2650581459
 C        -9.2760404466       -0.6340065141       -7.6627256824
 O       -10.1740011998       -1.4649747670       -7.7166827220
 C        -8.1588793887       -0.5767197063       -8.7508133446
 C        -8.6148119764       -1.3028751363       -9.9829535115
 C        -7.6046971049       -0.8366955605      -11.1234953097
 O        -6.4506341859       -0.5890594017      -10.8611301541
 C        -8.0773067822       -0.7452475727      -12.6146440119
 C        -7.6173443696        0.6002923011      -13.1581675047
 O        -8.3675013609        1.5361118168      -13.0812932521
 C        -6.2784954027        0.8255623804      -13.6963422022
 C        -5.8887148455        2.2828775138      -13.5646991996
 C        -4.4149534909        2.2872898305      -13.1513221253
 O        -3.6916739095        1.7395608441      -13.9692079479
 C        -3.9392864215        2.8989898227      -11.8395142803
 C        -3.0132033569        1.8509390347      -11.1960480150
 O        -2.2791553048        2.1330859845      -10.2961698057
 C        -2.9873719711        0.4136005322      -11.7819702832
 C        -2.5393315316       -0.5341159001      -10.6512636149
 C        -1.0431977804       -0.7230792479      -10.4754166236
 O        -0.2226941530       -0.1246588069      -11.1120967078
 C        -0.6566219925       -1.7695848633       -9.3189199305
 C        -0.0486148988       -2.8599047106      -10.2556347182
 O        -0.8732105544       -3.5685102191      -10.7971788460
 C         1.4253616792       -2.8805439648      -10.8000402040
 C         1.9513106349       -4.3415343125      -10.6669652456
 C         3.2670222874       -4.7185909801      -11.6019842648
 O         4.3301379999       -5.0026585387      -11.0955717651
 C         3.0077836459       -4.9798272008      -13.3043370938
 C         3.8792220458       -3.9357137691      -14.1323260351
 O         3.3053155034       -2.9747076520      -14.6428205380
 C         5.4089871719       -3.9869911441      -14.0925669142
 C         5.9588787466       -3.3550996493      -12.8154449952
 C         7.1432485385       -2.5381128670      -13.1338469308
 O         7.7221060587       -2.5251678581      -14.1941872613
 C         7.7632228998       -1.5011200337      -12.1104843072
 C         7.6297996369       -0.0969841725      -12.7991516480
 O         6.5470180229        0.4247858324      -12.6979747224
 C         8.7497968460        0.7025788476      -13.4501001611
 C         8.0925211663        1.5950979319      -14.5004864645
 C         7.7445328975        0.5981420199      -15.7862481249
 O         8.2241650994       -0.5497917750      -15.9611137536
 C         7.0489217056        1.2195003856      -17.0582142471
 C         6.0844062512        0.2332056205      -17.7662750708
 O         6.4029257882       -0.0369206813      -18.9089637556
 C         4.8444766449       -0.4602441288      -17.0749473470
 C         4.1130307692       -1.3420698748      -18.0806823304
 C         5.2829836677       -2.1958969070      -18.6954843138
 O         6.0430544003       -2.8254704386      -17.9444554929
 C         5.2615169065       -2.6407066563      -20.1810778535
 C         6.6369384622       -3.4064294205      -20.3393124976
 O         6.6787831993       -4.6255911878      -20.2650511303
 C         7.9176826333       -2.6782919273      -20.8334051510
 C         9.1628468388       -3.5196081409      -20.5786497599
 C         9.5277556692       -3.3746505062      -19.1189803539
 O         9.1449003074       -2.4015301845      -18.5050730683
 C        10.2146729711       -4.5641137970      -18.4640493517
 C         9.1072100408       -5.5337811666      -17.8226632867
 O         8.5320893130       -5.2676535001      -16.8111018251
 C         8.7504658213       -6.8769723157      -18.4537963272
 C        11.1439141132       -5.3016268985      -19.3433247794
 C        10.9887274908       -4.1031588579      -17.1527475929
 C         4.0328631550       -3.6382642960      -20.3600771090
 C         5.0805716683       -1.6063681103      -21.3449182190
 C         6.1273946952        2.5154263331      -16.7311408937
 C         8.1249735520        1.7400220358      -18.0985828641
 C         7.0268762061       -1.3528755803      -10.6695591049
 C         9.3057603290       -1.8802995771      -11.7195415967
 C         3.6035242170       -6.4605900123      -13.6062485345
 C         1.6204905944       -4.7573599022      -13.7117781953
 C         0.4351942607       -0.9109198280       -8.4531698900
 C        -1.6857543077       -2.2741264926       -8.3217408300
 C        -3.1698682954        4.2282676453      -11.9143357206
 C        -5.0200772622        3.0550271828      -10.7963919276
 C        -7.2913937145       -1.8867673232      -13.2732173170
 C        -9.6656935807       -0.8817946949      -12.8075512399
 C        -7.9384904722        1.2442683015       -6.4361453769
 C        -8.4316990769       -1.0583634221       -5.3497820962
 C       -15.3932331237        1.8404303416       -3.7578210636
 C       -14.0069050449        1.6339835251       -1.6883270145
 C       -20.5795039854       -2.6634122879       -1.0443995934
 C       -20.4020615635       -1.0110790119        0.7761789048
 C       -15.6954178749       -6.1248061428        3.2700542702
 C       -14.5785753345       -3.9284268308        4.2597007233
 H       -11.7481135719       -5.2034465804        2.2851611754
 H       -12.8154893932       -6.5381391819        1.8230532333
 H       -12.6926268227       -5.7570912381        3.5174508853
 H       -17.9416002174       -3.6016473777        4.1064737322
 H       -17.9812536364       -4.8212637215        2.7574807747
 H       -18.2686690791       -1.9404515012        2.5555814203
 H       -19.7693594942       -2.8538035362        2.7474610050
 H       -18.5190756528       -1.9606024270       -3.0409464431
 H       -17.2449164732       -2.3962369797       -1.9541051552
 H       -17.5362503938        0.3088875988       -3.3328181813
 H       -16.8111094126       -1.2091127297       -3.8201929698
 H       -12.1536399991        1.3501830500       -3.8159505953
 H       -13.2000011751        1.1042960001       -5.3528710864
 H       -12.0357086088       -0.6918787162       -5.9978895410
 H       -11.1476411583       -1.0584341094       -4.4536967345
 H        -7.2704953835       -0.9833066853       -8.2794322620
 H        -7.7631338660        0.4110801239       -8.9393266525
 H        -9.6870097447       -0.9606110280      -10.1701882261
 H        -8.4667677846       -2.3421665309       -9.7017868849
 H        -6.3390630255        0.4287792029      -14.7318314151
 H        -5.6224046283        0.2167198660      -13.1223057202
 H        -6.3889850178        2.7857543798      -12.7452704922
 H        -5.9816205225        2.8732479389      -14.4464955989
 H        -2.2021550043        0.4361001629      -12.5272144475
 H        -4.0132679594        0.2437367233      -12.2451382492
 H        -3.0742540491       -1.4534945169      -10.7975691668
 H        -2.8653940625       -0.1713876717       -9.6437857437
 H         2.0666716420       -2.2309077231      -10.1990085469
 H         1.5192690172       -2.5560261834      -11.8499700322
 H         1.1218154321       -4.8126817456      -11.2389294439
 H         1.9934925634       -4.6574693361       -9.5689381179
 H         5.8391586943       -3.5903239916      -14.9720117612
 H         5.6926435034       -5.0712558266      -13.9438592668
 H         6.0336802015       -4.1009337442      -12.0413324141
 H         5.2125002574       -2.6430170606      -12.3985214247
 H         9.5874790809        0.2076787322      -13.9221805632
 H         9.2851363462        1.3601859387      -12.7107012033
 H         8.8409380158        2.3069477514      -14.8110746420
 H         7.1247401053        2.0302516428      -14.2665308016
 H         4.1150343679        0.2626128678      -16.6999493620
 H         5.1673975268       -1.0120734138      -16.1444208891
 H         3.6336304806       -0.6320838186      -18.8000101382
 H         3.4037947538       -1.9790590939      -17.6300553610
 H         7.8665375626       -1.6736308856      -20.3506925478
 H         7.8892935051       -2.5108648576      -21.9109344879
 H        10.0310719365       -3.0627481761      -21.0938831621
 H         8.8315420364       -4.5514557240      -20.7530200154
 H         9.2145389008       -7.7355510513      -18.0788947699
 H         9.0447890041       -6.9001082627      -19.5486895445
 H         7.6474102731       -6.9221751586      -18.4955086789
 H        11.7612035426       -5.9127769321      -18.7436714185
 H        11.9065397279       -4.5891063672      -19.6770699036
 H        10.8217269773       -5.7925096893      -20.2204325550
 H        10.4063949094       -3.2770785764      -16.6147971717
 H        12.0548150930       -3.8281497601      -17.2819243148
 H        11.1007671242       -4.9232995590      -16.3369640884
 H         4.2288855633       -4.2330174925      -21.2528213469
 H         3.1141780989       -3.1950628260      -20.2433541178
 H         4.0828775300       -4.3707523667      -19.5292770193
 H         5.3567225920       -2.1263811809      -22.3036706894
 H         5.8413054087       -0.8738131852      -21.4703649042
 H         4.1075576834       -1.2123055734      -21.4101816103
 H         5.4958043045        2.5596608982      -15.9086379393
 H         5.5472785608        2.7969291319      -17.5985795659
 H         6.7420120305        3.3744992035      -16.6807835738
 H         8.7035882882        2.5699879880      -17.7529371840
 H         7.6631566227        2.1316992993      -19.0360795439
 H         8.6973406112        0.8541203001      -18.4617287503
 H         6.0005024746       -0.9808890047      -10.6445224753
 H         7.6384291229       -0.5420702277      -10.2222458333
 H         7.1666763801       -2.3458779684      -10.1443733138
 H         9.8919161154       -1.9380716801      -12.7034342289
 H         9.3543042350       -2.8749524326      -11.1474055345
 H         9.6674960602       -1.1046277983      -11.1234057719
 H         3.2174046812       -7.3123184131      -13.1014192853
 H         4.6876787792       -6.4549258474      -13.4581826469
 H         3.4775220115       -6.7189564664      -14.6686922445
 H         0.9694648948       -5.4214047454      -13.1234274344
 H         1.4557428069       -4.9902111974      -14.8116806453
 H         1.4135422960       -3.6624338897      -13.5514846646
 H         0.8427867009       -0.2365292464       -9.1855421785
 H         1.1349492491       -1.4352134491       -7.8658664571
 H        -0.1129002704       -0.3605292688       -7.6891673747
 H        -1.4296733638       -3.1082594140       -7.7469220260
 H        -2.4880471290       -2.6799542864       -8.9390189366
 H        -2.0111281161       -1.5015353378       -7.6397879349
 H        -2.3607821030        4.3598582467      -12.6159356776
 H        -2.8091957115        4.5737196357      -10.8922986724
 H        -3.8422871061        5.0144672869      -12.2877258546
 H        -5.2530886296        2.0317538083      -10.3194058232
 H        -5.8709428308        3.5499122810      -11.2102930948
 H        -4.6484744719        3.5988853559       -9.9118643252
 H        -6.2467240716       -1.7007532741      -13.1909534305
 H        -7.5760203173       -1.9658773132      -14.3209720496
 H        -7.4068818799       -2.7769324726      -12.7399522194
 H       -10.2152302380       -1.4973061794      -12.0597369714
 H        -9.8965165214       -1.3467426728      -13.7862026300
 H       -10.1249316328        0.1106102634      -12.8567043546
 H        -8.2555568059        1.8647951092       -7.2437160691
 H        -6.8604078505        0.9583075170       -6.4958157268
 H        -8.1209698165        1.9632282631       -5.6184516564
 H        -8.2732829086       -0.9143273623       -4.3024728255
 H        -7.4473155411       -1.2973143555       -5.7382539855
 H        -9.0779422921       -1.9698698711       -5.4036903548
 H       -16.0117969454        2.4909601373       -3.1120434119
 H       -15.9287159002        1.2720295876       -4.4737123243
 H       -14.5682730595        2.3923638926       -4.3638081280
 H       -12.9272864888        1.7630333574       -1.8338515840
 H       -13.9397150037        0.9864055103       -0.8409046011
 H       -14.4619001317        2.5723779605       -1.5295934228
 H       -21.1342198046       -3.4347029071       -0.5932248877
 H       -20.0345871479       -3.0912815973       -1.9261263267
 H       -21.2796050246       -1.9929740829       -1.4714408158
 H       -21.0755988630       -1.6826766492        1.4158031002
 H       -21.0144105269       -0.2914324970        0.1792787409
 H       -19.8294552136       -0.2666209302        1.2875749389
 H       -16.2115689540       -6.6398764131        2.5741178308
 H       -16.3745478276       -6.0048948453        4.1234671249
 H       -14.8072637551       -6.7621916117        3.5252581815
 H       -13.6940764176       -4.3425646375        4.7431851515
 H       -15.3594055483       -3.8982028480        5.0395352092
 H       -14.3844642221       -2.9654335484        3.9280849806
 Na      -15.5941926231       -2.8984339887       -0.3047118080
 Na        7.9252511251       -3.0303025629      -16.4440057603
