232

 C       -12.9498831382       -5.7606500611        2.2556651268
 C       -14.0504253165       -4.7349207348        2.0108250032
 O       -14.0618831058       -4.2474922913        0.8844785701
 C       -15.1061461198       -4.4555873169        3.1075397219
 C       -16.2392290984       -3.5280981788        2.5960824484
 O       -15.9870720301       -2.3797738656        2.1654844583
 C       -17.6690387120       -3.9834225298        2.7534608434
 C       -18.6743212892       -2.9134998722        2.2014909802
 C       -18.5358138095       -2.8081207371        0.7653891656
 O       -17.6491137876       -3.4237424817        0.1666910624
 C       -19.5725110557       -1.9395220710       -0.1553655110
 C       -18.6446025078       -0.9669957172       -1.0384385853
 O       -18.5224407860        0.1688474109       -0.7256740514
 C       -17.8620434171       -1.5956303888       -2.1387851377
 C       -16.9822439245       -0.5936154391       -2.8759646832
 C       -15.6952593459       -0.2590457773       -2.1630945175
 O       -15.2168548714       -0.7444170599       -1.1555401624
 C       -14.7892208819        0.7961645778       -2.8488549626
 C       -13.8197125626       -0.1752665429       -3.7797985002
 O       -14.0979032136       -1.3476599584       -3.8607906468
 C       -12.6967616613        0.5784291918       -4.4553152134
 C       -11.5911374426       -0.3843334799       -4.9095385566
 C       -10.4996107001        0.5062362607       -5.6320412397
 O       -10.7561581154        1.6526008902       -5.8155190905
 C        -9.1066360887       -0.0412620959       -6.0402081022
 C        -9.3438755967       -0.5986303357       -7.6046816405
 O       -10.3483558903       -1.2783001747       -7.8203061071
 C        -8.4254009801       -0.1838057053       -8.8529483531
 C        -8.5752719061       -1.2089272566      -10.0335461159
 C        -7.7111488792       -0.8398729394      -11.3456221912
 O        -6.5161615924       -0.5776555708      -11.2216698705
 C        -8.2679771479       -0.9058881071      -12.7382636121
 C        -7.9438785975        0.6349621657      -13.2685075209
 O        -8.8442556667        1.4117929065      -13.3285869501
 C        -6.4480376178        0.7711226825      -13.6870311279
 C        -5.7838791090        2.1590049631      -13.6559202269
 C        -4.3159369186        2.3412259335      -13.2089789875
 O        -3.3459841012        2.1331057304      -13.9203900620
 C        -4.0671736324        2.9042628345      -11.7190036893
 C        -2.8796224750        1.9609154266      -10.8908287600
 O        -2.3119943458        2.3767870415       -9.9310865389
 C        -2.7073290689        0.4960291004      -11.5255878015
 C        -2.3274505362       -0.5538543334      -10.5351271218
 C        -0.8097157166       -0.7875155406      -10.4703486540
 O         0.0079206537       -0.3417884913      -11.2001096485
 C        -0.3528061802       -1.6498227103       -9.1757352963
 C         0.1702308306       -3.0335406898       -9.9614159073
 O        -0.6698714356       -3.9332318938      -10.1316356249
 C         1.5328615921       -3.0445608928      -10.5600809717
 C         1.9345032799       -4.5739096546      -10.8693025401
 C         3.0669344606       -4.6459411395      -11.7446330667
 O         4.1925365904       -4.5266924967      -11.3111768970
 C         2.7629944903       -4.9130621584      -13.2544941801
 C         3.4577688963       -3.6159922403      -14.1137627602
 O         2.8249245816       -2.6860727926      -14.5609182615
 C         4.9042801985       -3.6553206043      -14.3867451530
 C         5.7488517163       -3.1510280962      -13.2229108300
 C         7.1440890244       -2.4799871772      -13.3336963160
 O         7.9557578088       -2.5409553768      -14.2373058069
 C         7.5807660881       -1.5269948621      -12.1811397324
 C         7.4533193659       -0.1158980053      -12.8112943647
 O         6.3798966062        0.4499561815      -12.9107422002
 C         8.6895104679        0.5068123086      -13.5089118898
 C         8.3928299228        1.4572968492      -14.6675383709
 C         7.9999626437        0.7044364665      -15.9700850216
 O         8.3194839514       -0.4676902824      -16.0030003903
 C         7.1963477245        1.2949021952      -17.0643918982
 C         6.3691331727        0.3143320570      -17.8975616083
 O         6.7855616670        0.0187235738      -18.9956173106
 C         5.1577574738       -0.2723300739      -17.3130153714
 C         4.3874945250       -1.2415490923      -18.2335256105
 C         5.3082065926       -2.4598910080      -18.6769312602
 O         6.0870301546       -2.9699943868      -17.8748761181
 C         5.3668773698       -2.8820093842      -20.1633752183
 C         6.8384387437       -3.6864128641      -20.3762092500
 O         6.8947075768       -4.8978652015      -20.1561311071
 C         8.0853787262       -2.9448024758      -20.9987317719
 C         9.3967230191       -3.6535957024      -20.6095301652
 C         9.6010022268       -3.6354964370      -19.0701524099
 O         9.1898527587       -2.6930790927      -18.4459557528
 C        10.2496298876       -4.8735670732      -18.3496834365
 C         9.0140290874       -5.5740426286      -17.7143100370
 O         8.4916385773       -5.0169443682      -16.7888701985
 C         8.5191946354       -6.8528996769      -18.3944865746
 C        11.1155117927       -5.7532417869      -19.2667439417
 C        11.2348210949       -4.1157181522      -17.2670877323
 C         4.1954074498       -3.9274307771      -20.3452664616
 C         5.0673703851       -1.7125163838      -21.0629930523
 C         6.3130739956        2.4252301387      -16.5798527178
 C         8.2694045952        1.9829194528      -18.0180964201
 C         6.7496509115       -1.5416713456      -10.8330223164
 C         9.0940414963       -1.8686357026      -11.7824946946
 C         3.4344116893       -6.2503559744      -13.5665770081
 C         1.2420339683       -4.9231484436      -13.6317122262
 C         0.7705578241       -1.1008306976       -8.3885255896
 C        -1.4362948978       -2.0960740662       -8.1661978479
 C        -3.5059806143        4.2894344918      -12.0118148309
 C        -5.2976508827        2.9777222995      -10.7264434480
 C        -7.5824265218       -1.9184709034      -13.6882579969
 C        -9.7810142040       -1.2056136585      -12.8538224696
 C        -8.1319445481        1.1722730030       -6.1116385220
 C        -8.6202396525       -1.1536704252       -5.1646960786
 C       -15.5686828054        1.7927389276       -3.6823437698
 C       -13.8557279740        1.5492867099       -1.8191298850
 C       -20.4236515115       -2.9521851045       -0.9799647264
 C       -20.5157008574       -1.0553909389        0.7409475182
 C       -15.6212454348       -5.7681093951        3.6391204186
 C       -14.3966702014       -3.7164886835        4.3545506111
 H       -12.1793914079       -5.6190113915        1.5101189014
 H       -13.4286409165       -6.6999645897        2.0859435465
 H       -12.3862537241       -5.5657907320        3.2156256789
 H       -17.8719420460       -4.2669597829        3.8339685406
 H       -17.9619154933       -4.8381637131        2.1542303755
 H       -18.4780080596       -1.9343331247        2.6060729917
 H       -19.7031307267       -3.2125934299        2.4554653472
 H       -18.4511905998       -2.0281133610       -2.9057029066
 H       -17.2251894009       -2.3987114812       -1.8193034089
 H       -17.6323416251        0.2361865108       -3.0237528506
 H       -16.6907402351       -0.9633447881       -3.8556938366
 H       -12.2988654491        1.3875727230       -3.8322527607
 H       -13.2007258221        1.0435431665       -5.2875469322
 H       -11.8846861633       -1.1534044137       -5.6468466124
 H       -11.1275917693       -0.8405244711       -4.0297505554
 H        -7.3862644386       -0.0526192452       -8.5236414921
 H        -8.6771452398        0.8390499051       -9.2989026824
 H        -9.6069799455       -1.3264701622      -10.3174420788
 H        -8.2091429466       -2.1792947960       -9.6751167509
 H        -6.2951631981        0.2764452367      -14.6991164851
 H        -6.0122779912        0.0844843887      -12.9887760910
 H        -6.3566529158        2.7577869118      -12.9582918411
 H        -5.7197442382        2.6006250106      -14.6432354646
 H        -2.0503206382        0.7627537749      -12.3534647775
 H        -3.7003053224        0.3663571676      -11.9786374033
 H        -3.0042994162       -1.3754913407      -10.6895757024
 H        -2.6422260037       -0.2079110956       -9.5131417781
 H         2.3456371366       -2.7788045218       -9.8948360978
 H         1.5827498335       -2.4000281824      -11.4459739600
 H         1.0311918730       -5.1835095712      -11.1595200998
 H         2.2051080971       -5.0520826418       -9.9214437834
 H         5.0987923000       -3.1518369220      -15.3564501230
 H         5.1556307174       -4.7176716521      -14.6730488651
 H         5.6770048549       -3.8677236621      -12.4329417920
 H         5.0790686965       -2.3806095850      -12.8620411291
 H         9.4198950365       -0.2219474860      -13.7796762366
 H         9.2081274654        1.1345069392      -12.7835998341
 H         9.1890577415        2.0958652312      -14.9855126334
 H         7.4730268008        2.0814518413      -14.2478188166
 H         4.4162768134        0.4834970472      -16.9727823808
 H         5.3669716626       -0.8245116338      -16.4259239635
 H         4.1194742477       -0.7236389218      -19.1278980356
 H         3.4821051997       -1.5847441318      -17.7353080672
 H         8.1025264997       -1.8762971576      -20.7426810404
 H         8.0087480538       -3.0061340538      -22.0561789782
 H        10.1069791712       -3.0108608561      -21.0019125897
 H         9.3808893027       -4.7049789635      -20.8518577232
 H         9.3244843041       -7.5605654010      -18.5927075694
 H         7.8970243692       -6.7014824906      -19.3185326223
 H         7.8144804072       -7.3446326970      -17.7567844404
 H        11.7923801599       -6.3265627442      -18.5652268453
 H        11.8571727718       -5.2047508651      -19.8554414110
 H        10.5393867474       -6.3189929310      -20.0443896249
 H        10.5758730683       -3.5953208732      -16.6221535754
 H        11.7696422760       -3.3068911739      -17.6791169349
 H        12.0102942404       -4.6728712600      -16.7792994943
 H         4.2741902233       -4.2019880671      -21.4046183073
 H         3.3001362446       -3.3929952387      -20.1499952493
 H         4.2006375493       -4.9076729364      -19.7545568424
 H         5.0785856123       -2.0055171779      -22.1298889678
 H         5.7845132926       -0.9075795342      -21.1357815403
 H         4.0383402646       -1.4771808614      -20.8782457463
 H         5.5655306821        1.9998206704      -15.8792100100
 H         5.6610749500        3.0022485037      -17.3304624531
 H         6.9375770673        3.1595457639      -16.0683676618
 H         7.7925380263        2.8793050105      -18.4043630612
 H         8.5193677603        1.2550614895      -18.8189801285
 H         9.2719817619        2.0940826298      -17.6492313389
 H         5.8066183910       -1.1350304375      -10.8407737939
 H         7.2868932028       -0.8289157915      -10.1918065022
 H         6.8826656485       -2.5174348651      -10.4459073366
 H         9.7895047804       -1.8903928175      -12.6281864338
 H         9.0734913795       -2.8130491630      -11.2605215432
 H         9.3576600659       -1.1906264800      -11.0703609442
 H         2.8747042272       -7.0504118689      -13.1471154341
 H         4.3925327776       -6.1754505028      -13.0081682013
 H         3.9115258915       -6.5398115523      -14.5396937578
 H         0.7102609339       -5.7799294273      -13.2557056864
 H         1.2580184104       -5.0010901900      -14.6878032932
 H         0.7368813006       -4.0596658270      -13.2817444377
 H         1.5263947738       -0.8137296158       -9.1465155089
 H         1.0180741600       -1.9624562589       -7.7332681695
 H         0.6696396691       -0.2368129164       -7.7149165312
 H        -0.9114510378       -2.5750424773       -7.3133743165
 H        -2.1565399604       -2.9103639759       -8.4892756723
 H        -1.9967881138       -1.2387902075       -7.7758809403
 H        -2.6353680365        4.2108414005      -12.6273361917
 H        -3.0571037478        4.8655358808      -11.1735810741
 H        -4.1564851795        4.9632559682      -12.4994248905
 H        -6.1660345202        3.2171686447      -11.3326476937
 H        -5.1679659712        3.6901374231       -9.9445969789
 H        -5.5338369723        2.0150714104      -10.3001525627
 H        -6.4921630025       -2.0386543890      -13.4276998172
 H        -7.7765406987       -1.5307113767      -14.7376362458
 H        -7.9575374638       -2.8916274259      -13.5281713211
 H        -9.9313960464       -2.1712569973      -12.4293008534
 H       -10.1031403106       -1.2371338445      -13.8949517466
 H       -10.4078416632       -0.4675232623      -12.3750130314
 H        -8.5924644298        2.0765989002       -6.5150150412
 H        -7.2928800741        0.8372348084       -6.6727293802
 H        -7.8297141165        1.4921418845       -5.1124569837
 H        -8.3962918064       -0.7440001965       -4.1401436244
 H        -7.7130957384       -1.6402636988       -5.4391051392
 H        -9.3619049812       -1.9811508242       -5.0522993637
 H       -16.3192384286        2.1389996251       -3.0276570704
 H       -15.9344375753        1.2847914481       -4.4787804676
 H       -14.9461208291        2.6874569804       -3.8961631975
 H       -12.8488279029        1.2860576807       -2.1407054159
 H       -13.8969789700        1.0306258497       -0.8033680264
 H       -13.8693002581        2.6543550791       -1.9020496136
 H       -21.2798975440       -3.3499970448       -0.5197651160
 H       -19.7047835145       -3.8549156401       -1.1906841414
 H       -20.7133778527       -2.6358148391       -2.0171019912
 H       -21.0341626140       -1.5750342878        1.5428555777
 H       -21.2494821117       -0.4088834079        0.2215259545
 H       -19.8768854273       -0.3612363066        1.2610384074
 H       -15.9837937298       -6.4716839065        2.9266911843
 H       -16.3820865805       -5.5606894224        4.4220045457
 H       -14.7846310627       -6.3880280668        4.1349870022
 H       -13.6860563158       -4.4351822250        4.8068009762
 H       -15.1095986067       -3.4385813392        5.1691091709
 H       -13.8165852791       -2.9112518695        4.0039500566
 Na      -15.3578155671       -2.6272520726       -0.0466219913
 Na        7.8530030331       -2.6086919340      -16.6206853814
