232

 C       -12.9881395061       -5.8510899349        2.2508512712
 C       -14.0305626717       -4.7477409449        1.9973921382
 O       -14.1554798163       -4.2124985747        0.8819754200
 C       -15.0539404647       -4.4659384799        3.1962031491
 C       -16.2409417724       -3.4552906418        2.7311931623
 O       -15.8800565718       -2.3488475487        2.3582425660
 C       -17.6540917598       -3.9541499752        2.6993900810
 C       -18.7339734972       -2.9976712257        2.2213394739
 C       -18.4539727093       -2.7501701760        0.7207099492
 O       -17.5030560783       -3.3269124565        0.1635834505
 C       -19.4910122943       -2.0031562062       -0.1250433999
 C       -18.6659805444       -0.9616928915       -1.0654048728
 O       -18.6739600544        0.2146560247       -0.7704996646
 C       -17.9414712211       -1.5964048893       -2.2299842198
 C       -16.9591727347       -0.6052473225       -2.8405613038
 C       -15.6312622458       -0.2722448001       -2.1505384910
 O       -15.2949509636       -0.8470559294       -1.1251439032
 C       -14.6591875828        0.8033322415       -2.8417994020
 C       -13.8161374587       -0.1163130180       -3.8127912255
 O       -13.8900527592       -1.3134714542       -3.8535077495
 C       -12.7154695455        0.5629609705       -4.6169947599
 C       -11.5415987225       -0.3834269567       -4.8965744434
 C       -10.5316162462        0.5388360332       -5.7748264271
 O       -10.8858629847        1.7052004816       -5.9417477311
 C        -9.1212903272       -0.0781164183       -6.1963858814
 C        -9.3579057222       -0.5808140026       -7.6768890624
 O       -10.3508775368       -1.2516779161       -7.8053447025
 C        -8.5071712797       -0.1423201078       -8.8154190285
 C        -8.6706891577       -1.0684165035      -10.0123474121
 C        -7.7248747567       -0.8713917773      -11.3247048303
 O        -6.5617748146       -0.7094040309      -11.0880937611
 C        -8.3472108692       -0.8800249174      -12.7976120003
 C        -7.9907077263        0.5347170493      -13.3336674242
 O        -8.7598012932        1.4583810660      -13.4494780289
 C        -6.4565985611        0.6976592749      -13.6874638056
 C        -5.9463873793        2.1663717525      -13.6892238773
 C        -4.4207672892        2.3323930719      -13.1613717142
 O        -3.4961322449        2.2281677744      -13.9415406638
 C        -4.0340268836        2.8797503210      -11.7497378153
 C        -3.0451297758        1.9918357687      -11.0140240594
 O        -2.4780165112        2.4180366608      -10.0481498412
 C        -2.7205718067        0.5290591948      -11.4735482749
 C        -2.2030472165       -0.3464613161      -10.3567696280
 C        -0.7446211767       -0.7494319748      -10.3244944147
 O         0.1494764616       -0.4349840016      -11.1050389213
 C        -0.2123059376       -1.7821531985       -9.1198565841
 C         0.1011041228       -3.1075634884       -9.8568312081
 O        -0.6548293931       -4.0358776305       -9.8473327417
 C         1.4742054527       -3.1572827903      -10.4566125530
 C         1.8793939345       -4.6837440579      -10.7504787491
 C         3.0131640788       -4.6292896983      -11.7412660756
 O         4.2015303572       -4.4238371048      -11.4414195296
 C         2.8021108342       -4.8395001763      -13.3639272657
 C         3.3564694981       -3.7160280314      -14.2360848050
 O         2.5995500196       -2.7271420690      -14.4012548626
 C         4.9486984295       -3.5895185445      -14.6059652663
 C         5.6423819663       -2.9393068945      -13.4289829149
 C         7.0723684623       -2.4190215738      -13.4152829877
 O         7.8458132071       -2.7396370337      -14.2926233063
 C         7.5813902703       -1.5162269063      -12.1155926279
 C         7.4148031447       -0.1078778584      -12.8651144142
 O         6.3373059597        0.4015922226      -12.9209113345
 C         8.7161653587        0.4253151276      -13.5621634794
 C         8.4400873082        1.3821449967      -14.5721374924
 C         8.0512108720        0.6743278230      -15.9067362115
 O         8.3576377544       -0.5537452635      -16.0532934111
 C         7.2416047638        1.4572516286      -17.0128196956
 C         6.5773727845        0.2934092700      -17.9671399758
 O         6.9779240922       -0.0410080907      -19.0812925218
 C         5.2295226438       -0.3276831421      -17.3641383906
 C         4.4919832518       -1.3315953690      -18.2736737952
 C         5.4629500566       -2.5167624067      -18.7224525735
 O         6.0392121904       -3.0446403133      -17.7917942490
 C         5.3993302085       -2.9472774520      -20.2199216573
 C         6.8110165805       -3.7526351043      -20.4527798469
 O         6.8616454743       -4.8785689117      -20.0991258013
 C         8.0723427432       -3.0487598448      -21.0212499041
 C         9.3742250621       -3.7592218516      -20.6418243078
 C         9.5999346618       -3.6574389836      -19.1012510931
 O         9.1847071518       -2.6618433732      -18.5197608102
 C        10.2732190633       -4.8136645901      -18.3465154398
 C         9.0188057489       -5.5446888528      -17.6485305844
 O         8.3716846224       -4.9749271859      -16.8040131304
 C         8.5417625992       -6.8167013813      -18.2182019811
 C        11.0157245922       -5.7630519154      -19.2853475071
 C        11.3304634035       -4.2941360092      -17.3176508327
 C         4.3035524047       -4.0718873754      -20.3787201615
 C         5.1204867436       -1.8245186351      -21.1320074856
 C         6.3335426648        2.6334988571      -16.4741873663
 C         8.3441215910        2.1802126987      -18.0438587875
 C         6.7673132839       -1.4962118547      -10.8634795427
 C         9.0672741200       -1.7296929779      -11.7823463167
 C         3.4335751794       -6.1691024817      -13.7341499387
 C         1.2675039794       -4.8691113060      -13.6550017441
 C         0.8875411599       -1.0489260685       -8.4596965723
 C        -1.3684529204       -2.0236025725       -8.1079708894
 C        -3.4655612892        4.3183116400      -11.7810957908
 C        -5.3248447375        2.9457875394      -10.8142366503
 C        -7.4899915843       -1.9096402053      -13.6127191041
 C        -9.8565366311       -1.0962557493      -12.7570805290
 C        -8.0494619265        1.0037519739       -6.1628567043
 C        -8.7225461012       -1.1985261788       -5.2225366288
 C       -15.5687488399        1.7758565963       -3.7224724173
 C       -13.8323026178        1.5229652154       -1.8044571821
 C       -20.3979535554       -3.0173820336       -0.9646498749
 C       -20.4244781393       -1.1177540109        0.6824213653
 C       -15.6419850905       -5.7015913555        3.7565496144
 C       -14.3366755793       -3.5639182983        4.3184395332
 H       -12.1697736141       -5.9297184445        1.5177254834
 H       -13.5306811025       -6.7511479934        2.3435437067
 H       -12.4947088395       -5.4617228865        3.1615020071
 H       -17.8625313100       -4.1712385739        3.8261905779
 H       -17.9251155945       -4.8655479803        2.2139785972
 H       -18.5901421622       -2.0767035074        2.7935654036
 H       -19.7577123277       -3.4333920500        2.4607356870
 H       -18.6082120710       -1.9340823577       -3.0426535266
 H       -17.2875921931       -2.4751052217       -1.9932788438
 H       -17.6075274551        0.2285354188       -3.0153183076
 H       -16.5802886757       -0.9536991459       -3.7979399466
 H       -12.3813949980        1.4668390637       -3.9937071815
 H       -13.1059567317        0.9718276697       -5.5808226581
 H       -11.7553965257       -1.2156502861       -5.5658249760
 H       -11.0891620189       -0.7440359684       -3.9983542618
 H        -7.4522095327        0.0989193033       -8.5987859309
 H        -8.9077059242        0.8222175064       -9.1803686953
 H        -9.7878619687       -1.1706996181      -10.2588630902
 H        -8.4354128630       -2.0772492879       -9.6594946321
 H        -6.3676564877        0.3614599546      -14.7330833197
 H        -5.9274160734       -0.0240087870      -13.1287987078
 H        -6.5503110588        2.7187207832      -12.9926862262
 H        -5.9048678389        2.5690195455      -14.6416666685
 H        -2.0540913930        0.7572115880      -12.3141949910
 H        -3.7111831951        0.1922213594      -11.9367587861
 H        -2.7255048143       -1.2608036665      -10.6158507072
 H        -2.6466178934       -0.1448111096       -9.3595748158
 H         2.3310568631       -2.7888631138       -9.8849432851
 H         1.5197916381       -2.6502759393      -11.4321276034
 H         0.9699696461       -5.2146635057      -11.0714626174
 H         2.1087590988       -5.3225976382       -9.8297615319
 H         5.0934159353       -3.1445173780      -15.5456407230
 H         5.4040250758       -4.5981900965      -14.8281178623
 H         5.6265251850       -3.6622987131      -12.6684936056
 H         4.8932081625       -2.2442992566      -13.0956487807
 H         9.2628095784       -0.3715849473      -13.9828941466
 H         9.4025789985        0.9014163486      -12.8624648049
 H         9.3369434660        1.9433650533      -14.9173327076
 H         7.6915490376        2.0296533199      -14.1718680758
 H         4.5156501340        0.4624336759      -17.1938095886
 H         5.3038870744       -0.8511214666      -16.3759365082
 H         4.0827425085       -0.7685332914      -19.1244503757
 H         3.7045544814       -1.7821337644      -17.7856904252
 H         8.1592586932       -2.0441378620      -20.6326797741
 H         7.9698939975       -2.9571587488      -22.0853694264
 H        10.1324933787       -3.1560843292      -21.1443426727
 H         9.3070251486       -4.8062570170      -20.7554042408
 H         9.1769516224       -7.5222275477      -18.6540686629
 H         7.7116970285       -6.5183069007      -18.8831517603
 H         7.9235166371       -7.3678343820      -17.4238219320
 H        11.3114515574       -6.6040517821      -18.7357612151
 H        12.0137204256       -5.3451784346      -19.6949734282
 H        10.4426764987       -5.9905991789      -20.1882956817
 H        10.6712912223       -3.9715210148      -16.4819118350
 H        11.8885181699       -3.4079896726      -17.4488666767
 H        12.0233698685       -5.0939677186      -17.0499667923
 H         4.1512501544       -4.2406093638      -21.4763978028
 H         3.3908763590       -3.7123563660      -19.9181879662
 H         4.6120024686       -5.0186499047      -19.9277222820
 H         5.3448422093       -2.1150661614      -22.2091669823
 H         5.7028324204       -0.9266812537      -21.0560876048
 H         4.0598505054       -1.6855304410      -21.1250400547
 H         5.7441949830        2.3198106740      -15.6578023425
 H         5.5852468053        3.0077916199      -17.1706584561
 H         7.0026580367        3.4468732402      -16.1581370366
 H         7.6818193837        2.6543652318      -18.7391999163
 H         8.9977947741        1.4108111612      -18.4936495567
 H         9.1364018814        2.9099044464      -17.6993697130
 H         5.7129451162       -1.5527071219      -11.0149100673
 H         6.8218078403       -0.5741105809      -10.3997208755
 H         7.1980063607       -2.2908205457      -10.2048972708
 H         9.6038923563       -1.7596855545      -12.7277592432
 H         9.2516767451       -2.6594003845      -11.2091766219
 H         9.4300976416       -0.9352757449      -11.1663370691
 H         2.9162871834       -7.0118716769      -13.2600216565
 H         4.4873895001       -6.1609903249      -13.4316233837
 H         3.6587844911       -6.3265573703      -14.7820950766
 H         0.9247247619       -5.6459329066      -13.0696458857
 H         1.1795014674       -5.1841731271      -14.6595622731
 H         0.6820473007       -4.0071705799      -13.3466409344
 H         1.5455748611       -0.6081635739       -9.2067992908
 H         1.2921425058       -1.6462204049       -7.6476462958
 H         0.4939404688       -0.1239032312       -7.9703577133
 H        -0.9260852341       -2.6142581243       -7.3298008629
 H        -2.2817914402       -2.5962366799       -8.3677241183
 H        -1.6726828852       -1.0343983295       -7.6809345784
 H        -2.5686619582        4.5357653043      -12.3596616599
 H        -3.0768844070        4.6198407392      -10.7783004668
 H        -4.2345159517        5.0955305885      -12.0121676489
 H        -5.9452671214        3.8768882169      -10.9706108913
 H        -5.0260702739        2.8192009419       -9.8132813604
 H        -5.9806326051        2.0907908142      -10.9999897876
 H        -6.4780870108       -1.9532097498      -13.2339255646
 H        -7.5550181961       -1.6177133876      -14.6743104172
 H        -7.8791106856       -2.9283483735      -13.4568580191
 H       -10.0787064285       -2.1714027848      -12.6240146931
 H       -10.3928008402       -0.6450578533      -13.5641885759
 H       -10.1696647809       -0.5482140697      -11.9224530887
 H        -8.4541702866        1.9432575013       -6.3745422850
 H        -7.1473664737        0.7618958386       -6.7852272539
 H        -7.7899526077        1.0885935127       -5.1086890400
 H        -8.6464896756       -0.9046422835       -4.1934504219
 H        -7.6567410096       -1.4950064174       -5.4676711877
 H        -9.2468493386       -2.1918247761       -5.3573839664
 H       -16.3204806017        2.0905977080       -3.0773162625
 H       -15.9830324116        1.1822859611       -4.5280180898
 H       -14.9985102437        2.6660117682       -3.9110434409
 H       -12.7025530130        1.2381308731       -1.9467432314
 H       -14.1180595883        1.0316018165       -0.8903925232
 H       -13.8447539904        2.6119521611       -1.8634626487
 H       -21.4085733306       -3.2215519095       -0.4941433398
 H       -19.9052081926       -3.9790726662       -0.9614425414
 H       -20.5760453599       -2.8094162602       -2.0261062840
 H       -21.1527075522       -1.7162852593        1.3912241982
 H       -21.0264144056       -0.3812009824        0.1264397127
 H       -19.8259757278       -0.6026947239        1.4368801862
 H       -16.2247631092       -6.1448877854        3.0046084846
 H       -16.2885126455       -5.4781275365        4.6601043488
 H       -14.9723764189       -6.5491628412        4.0121099934
 H       -13.5148929555       -4.0218039815        4.8492722752
 H       -15.0957202555       -3.3445338152        5.0556687482
 H       -13.9703289805       -2.6788049744        3.8627129884
 Na      -15.4409687162       -2.5201318639        0.0526192325
 Na        7.8846130046       -2.5649237080      -16.4977552025
