232

 C       -18.7240708574      -12.6274923914       -0.9070618788
 C       -17.4695420408      -12.8753785459       -1.6706936336
 O       -17.2516166939      -12.3335207618       -2.7443863757
 C       -16.3674684978      -13.9109010481       -1.0625045600
 C       -15.1663436842      -14.0547851243       -2.0980909292
 O       -15.3960078388      -14.3845361110       -3.2640366979
 C       -13.7746855368      -13.8319948384       -1.6612242987
 C       -12.8560444450      -13.7251989112       -2.8968941646
 C       -13.3075203513      -12.7103250648       -3.9136723233
 O       -14.2731366450      -11.9340326838       -3.6629010814
 C       -12.5476507497      -12.5493162574       -5.3479757503
 C       -13.7204684758      -12.0759312065       -6.2321677615
 O       -14.6989422141      -12.7702752844       -6.4013142570
 C       -13.5817560111      -10.8031857565       -6.9437601029
 C       -14.8579945491      -10.1135705404       -7.3925331633
 C       -15.7001051205       -9.6239125843       -6.1117836421
 O       -16.2964898872      -10.3824104207       -5.4215435303
 C       -15.7004830964       -7.9848348332       -5.7143892449
 C       -14.5163645879       -7.4127189272       -6.5464346791
 O       -13.3511071816       -7.6843419171       -6.4283260985
 C       -14.9455881410       -6.2829135468       -7.5688031514
 C       -13.7325730729       -5.3954409188       -7.8080282590
 C       -13.9473073255       -4.2346524347       -8.9068526745
 O       -15.0080700653       -3.8907998707       -9.2635535540
 C       -12.7020065856       -3.4070259758       -9.4166529851
 C       -11.9164038830       -2.7671389007       -8.2322019438
 O       -12.4448307184       -2.4949784389       -7.1787277865
 C       -10.4025268056       -2.5721613729       -8.4450219003
 C        -9.7574319858       -1.7378383814       -7.3418954739
 C       -10.1312766344       -0.2980282659       -7.5528291059
 O       -10.7816797594        0.0562043595       -8.4882784485
 C        -9.4369857764        0.6483267642       -6.4335067661
 C        -7.9055187891        0.7020798331       -6.8906792866
 O        -6.9662571676        0.3838746873       -6.1686620814
 C        -7.6028282695        1.4458316440       -8.1205666748
 C        -6.2275360445        1.2191293933       -8.6678302448
 C        -5.9099343283        2.1671953135       -9.9890532558
 O        -6.2465526469        3.3116282617       -9.9220515583
 C        -5.3344208478        1.6062616587      -11.3351691242
 C        -3.7920234184        1.1567284924      -10.8009523562
 O        -3.6522547198        0.0722679414      -10.2718360968
 C        -2.6693855280        2.1496595790      -10.9427911817
 C        -1.5103590740        1.6843268943      -10.0844772164
 C        -0.1324878371        2.3187233955      -10.3953190420
 O         0.0469906400        3.2050064460      -11.1766423374
 C         1.1725002971        1.5157361929       -9.8938947658
 C         2.4413866741        2.5823015196       -9.7276322802
 O         3.4211217734        2.2747267005      -10.3055041094
 C         2.4170740423        3.7558582769       -8.6981126126
 C         3.7252165345        4.4993611619       -8.7250131022
 C         3.5843163127        5.7272591057       -9.5798322776
 O         2.6260265422        6.4443436899       -9.5720424082
 C         4.7730141204        6.0185606175      -10.5561728062
 C         4.3600019608        5.1550087154      -11.8492673915
 O         5.3026037004        4.5607278422      -12.3614511477
 C         2.8542126301        5.1228877933      -12.3546355991
 C         2.6075728229        6.1873057003      -13.4486543900
 C         3.1911670942        5.6710164039      -14.7601332578
 O         3.4509569066        4.4868301684      -14.8502597780
 C         3.1220503698        6.5190466509      -16.0215431667
 C         4.4963767388        6.3885226228      -16.7724804954
 O         4.5996324442        6.8457746766      -17.9136897515
 C         5.6795304127        5.9938516655      -15.8507432644
 C         7.0323788328        5.8699147947      -16.4549992009
 C         7.4766759673        4.4440498234      -16.6933824051
 O         7.0178563457        3.4892713528      -16.1191215911
 C         8.6990582296        4.1560238921      -17.7365218230
 C         9.8128696849        3.2994341771      -16.9765028618
 O         9.5481053352        2.8875163711      -15.8899059283
 C        11.2448496718        3.2109686757      -17.6006045982
 C        12.0981612957        2.5376828067      -16.5158183223
 C        11.4388458714        1.1128541317      -16.2728260086
 O        10.7381156450        0.5863214286      -17.0687606843
 C        11.9105790011        0.3233898663      -15.1241777426
 C        10.7352155926       -0.1830801891      -14.1240144495
 O        10.9431794000       -0.2968293438      -12.9464163583
 C         9.4368218504       -0.5745483247      -14.8102685990
 C         8.4020098561       -0.9624305509      -13.8227482852
 C         7.2926982615        0.0833949185      -13.5547947181
 O         7.4343183851        1.2391522225      -14.0225258104
 C         5.9753783762       -0.3526458330      -12.8275491185
 C         4.8276396707       -0.1343638950      -13.8491897234
 O         4.5391397729        0.9979477756      -14.2922534041
 C         3.9544227050       -1.3697542880      -14.4769178869
 C         6.1299541032       -1.6817373647      -12.2285262736
 C         5.7956353850        0.6197314079      -11.5653880106
 C        12.6349284367       -0.9524266671      -15.5988801393
 C        12.8836232021        1.1554434342      -14.1966415662
 C         8.1751307551        3.2056314067      -18.8222023724
 C         9.1725096897        5.4492819460      -18.3711468153
 C         2.0493234618        5.9924277070      -16.9748588612
 C         2.9018761191        8.1426269081      -15.9896522539
 C         4.6280511089        7.5431823904      -10.9080394088
 C         6.2288304316        5.6488700966      -10.0924480165
 C         0.9232079516        0.8363556245       -8.5297034571
 C         1.4352920292        0.5000163053      -11.0260592460
 C        -5.9203904776        0.3170232805      -11.9937621970
 C        -5.3426801801        2.7912786330      -12.3831062169
 C       -10.0521968663        2.0687640056       -6.4948542760
 C        -9.5112697570        0.0139438083       -5.0621987721
 C       -11.7858142590       -4.4535031929      -10.2002899768
 C       -13.3149960150       -2.3219020095      -10.3767840665
 C       -17.1907430169       -7.5751672895       -5.8927225685
 C       -15.3345172113       -7.9856989106       -4.1645760470
 C       -11.4526807139      -11.4601882944       -5.2197918072
 C       -11.9766423075      -13.8284421605       -5.9169588157
 C       -15.9661763879      -13.5018769992        0.3672530741
 C       -17.1265228263      -15.2651377285       -0.9529209515
 H       -18.5118145368      -12.2050550199        0.0287323962
 H       -19.2638384141      -13.5794594663       -0.7098167408
 H       -19.2947183910      -11.9824786480       -1.5958477196
 H       -13.4259055250      -14.6162577158       -1.0490463200
 H       -13.6622942448      -12.9787351702       -1.0062752067
 H       -12.8962988776      -14.6962031220       -3.3741351532
 H       -11.7839300971      -13.5789007161       -2.6218763962
 H       -12.8698160403      -10.8340583602       -7.7549347118
 H       -12.9536646977      -10.1082395737       -6.3244181639
 H       -15.3210596909      -10.8542422720       -8.0279141891
 H       -14.7403455893       -9.2442025924       -7.9460874686
 H       -15.7443580400       -5.7306543353       -7.1933997978
 H       -15.3802524325       -6.7339906754       -8.5013007335
 H       -12.8521270971       -6.0400738384       -8.0757198053
 H       -13.3759623365       -5.0115002246       -6.8863423049
 H       -10.1835085044       -2.1234031535       -9.3961531326
 H        -9.8411430028       -3.5143952030       -8.5084864244
 H        -8.6362759359       -1.6690654923       -7.4468410596
 H       -10.0501202001       -2.0244016773       -6.3460002193
 H        -7.7805716905        2.5155202612       -7.9188730979
 H        -8.4074806626        1.1679173493       -8.8566100161
 H        -6.0590647739        0.2386270593       -9.0670070649
 H        -5.5157368718        1.4319188840       -7.8474592114
 H        -2.9104706169        3.1471331198      -10.7373752394
 H        -2.4891598694        2.0390346192      -12.0044538073
 H        -1.4272221999        0.6462321355      -10.1514663937
 H        -1.8909267824        1.7672010346       -9.0767677967
 H         2.1998794420        3.4060561220       -7.7112684037
 H         1.7025756941        4.4503322495       -8.9307454883
 H         4.5314057165        3.7867120422       -8.9899691374
 H         4.0135154840        4.7796951381       -7.6479204974
 H         2.1609850969        5.2971992990      -11.5526421477
 H         2.6923156236        4.1258947695      -12.7573596188
 H         3.0946365136        7.0958207777      -13.2562640950
 H         1.5381283639        6.3902367383      -13.5725847005
 H         5.3785702991        4.9893528060      -15.6397521536
 H         5.7068424938        6.5780964192      -14.9063227450
 H         7.8048741759        6.4514231607      -15.9980279705
 H         6.9334853570        6.2645114719      -17.5230316975
 H        11.5445770647        4.2507998594      -17.9072526494
 H        11.2029123573        2.4752014563      -18.4333109313
 H        12.1745252932        2.9936011711      -15.5693740160
 H        13.1702581113        2.3084399937      -16.8565701581
 H         9.7342112785       -1.4418616309      -15.4108931800
 H         9.2043542648        0.2458712176      -15.5278819589
 H         8.7217599913       -1.2527881934      -12.7973263045
 H         7.9121955976       -1.8913263825      -14.1547988300
 H         2.9182727867       -1.3215187631      -14.4614484591
 H         4.2241436690       -2.3308786478      -14.0025075314
 H         4.2093271921       -1.5460621989      -15.5670188085
 H         5.3624169934       -1.9027428071      -11.5440906496
 H         7.0626737882       -1.7297061790      -11.6374870064
 H         6.2028051821       -2.5498579392      -12.8787921304
 H         5.9195933780        1.6617529182      -12.0103623558
 H         6.6759464372        0.3375488416      -10.8217388328
 H         4.7766912308        0.4553665552      -11.1923537221
 H        13.5521593327       -0.6946286560      -16.1366071411
 H        12.0068140588       -1.4333682561      -16.3467921783
 H        12.8531723677       -1.6507032239      -14.7548590544
 H        13.8074899143        1.5697573283      -14.6379313738
 H        13.2283731359        0.4396424842      -13.4480288279
 H        12.2365391751        1.9380263996      -13.7396936287
 H         7.1651237817        2.6961270018      -18.6249819074
 H         8.9175282759        2.4691455416      -19.1084913843
 H         7.7607546229        3.7733723403      -19.7036413073
 H         9.6661996893        6.1726724885      -17.6838227762
 H         8.3611450099        5.9087349996      -18.9016591991
 H         9.9931913851        5.2716145176      -19.0799236839
 H         1.0786161297        5.7768679836      -16.4644147245
 H         2.2125394425        4.9515339133      -17.3482435036
 H         1.9343013744        6.8221018930      -17.6723521008
 H         3.2662030465        8.5084952762      -16.9995385666
 H         3.6190860139        8.7664272874      -15.3862386667
 H         1.9148170366        8.4766725052      -15.6877715249
 H         4.1869757164        7.9139142703      -11.8457753262
 H         5.5978465404        8.1080592392      -10.9471717097
 H         4.1016441066        8.1158495002      -10.1928073854
 H         6.8265888453        6.0395148980      -10.8990391277
 H         6.3740799819        4.5834208757       -9.7557917651
 H         6.3190547190        6.1948809821       -9.0913616310
 H         0.7178148346        1.6333717395       -7.8557351618
 H         1.7668140810        0.3263494225       -8.1849332531
 H         0.0674429050        0.2162782408       -8.5951539184
 H         0.7066167694       -0.3739006621      -10.8704043492
 H         2.4432392805        0.1583128604      -10.8354032223
 H         1.3933760330        1.0827988415      -11.9816980526
 H        -5.6682235140       -0.5295642137      -11.4333279528
 H        -5.4408331489        0.1970147444      -12.9810234849
 H        -7.0066570624        0.3879312931      -12.2911085604
 H        -5.5876835216        2.4103367231      -13.4153026658
 H        -4.4857023584        3.4400466972      -12.4016703555
 H        -6.2145230904        3.3269606208      -12.0542803788
 H       -10.9603156026        2.1369501603       -5.9795200231
 H       -10.3192833305        2.3362328043       -7.5086269001
 H        -9.2920199738        2.8478652515       -6.1406076011
 H        -9.2523152038        0.7795240033       -4.3634186226
 H        -8.7901792213       -0.7612992506       -5.0672641725
 H       -10.4181922081       -0.4729493573       -5.0698514974
 H       -10.8062490247       -4.0333152539      -10.4568426339
 H       -12.1461390675       -4.6807063334      -11.2604747578
 H       -11.6162658256       -5.3197222669       -9.5393174180
 H       -13.7442794950       -2.7817238477      -11.2884410356
 H       -12.6233426422       -1.5064732548      -10.7170148540
 H       -14.0263048637       -1.7851817527       -9.8034711726
 H       -17.6293993342       -7.8068945248       -6.8544174390
 H       -17.5267154890       -6.5927460247       -5.6462387010
 H       -17.7758253933       -8.1945322241       -5.1862186592
 H       -14.2841496266       -8.2835070665       -4.0899147354
 H       -16.0330549053       -8.5988735372       -3.6968024580
 H       -15.3366795853       -7.0119657072       -3.6934139291
 H       -11.7316451899      -10.5031804133       -4.7423055679
 H       -10.9280075089      -11.1768932297       -6.1207398801
 H       -10.5949768884      -11.8062960172       -4.6911720842
 H       -12.7546791142      -14.5097577048       -6.0596918906
 H       -11.2114841490      -14.3089893636       -5.3279518860
 H       -11.5725349602      -13.5861852067       -6.8729474131
 H       -15.5845915107      -12.4296245077        0.3147057019
 H       -15.1089872755      -14.1788773797        0.7373618897
 H       -16.8361866146      -13.4994737092        0.9915431207
 H       -17.8319339258      -15.3369981073       -1.7115361218
 H       -17.6650685939      -15.2217874381       -0.0251505830
 H       -16.5074803065      -16.1865740248       -0.9103449997
 Na      -16.2088209370      -12.6738270594       -4.7486587949
 Na        5.5214313720        2.9959451751      -14.1541125447
