232

 C       -13.1063681919       -5.9294401782        2.3102345159
 C       -14.1667722604       -4.7935525247        2.0745898135
 O       -14.2356636606       -4.1838018094        1.0227387885
 C       -15.0154420279       -4.3527447882        3.3451526415
 C       -16.1732634218       -3.4475821806        2.8738814979
 O       -16.0337369767       -2.2212267732        2.6337890607
 C       -17.6158569697       -3.9518118797        2.9276041301
 C       -18.6135169397       -2.9838972784        2.1767335337
 C       -18.4518419276       -2.7865754357        0.6572806609
 O       -17.5452527877       -3.3665127417        0.0816297203
 C       -19.5322239759       -2.0161626269       -0.1191160908
 C       -18.7661003672       -0.9680827712       -1.1748203885
 O       -18.8126325664        0.2035245945       -1.0311629873
 C       -17.9623100274       -1.6053444427       -2.3128303452
 C       -16.9735512229       -0.6179715656       -2.9836232364
 C       -15.7153805675       -0.2397382967       -2.2239250054
 O       -15.4160239487       -0.7546554354       -1.1791474816
 C       -14.6023793579        0.7544729225       -2.9205783533
 C       -13.7313022108       -0.1588774715       -3.8638613576
 O       -13.7332172253       -1.3529577871       -3.7100328295
 C       -12.8131880453        0.6011424608       -4.8073754295
 C       -11.5292236164       -0.0486988982       -5.0925607025
 C       -10.4939975643        0.7719039188       -5.9184152241
 O       -10.5985865375        1.8374275751       -6.4324231256
 C        -9.1309411867       -0.0850256186       -6.3059657666
 C        -9.4215608223       -0.5634810522       -7.6784458789
 O       -10.3622874593       -1.3594090903       -7.8645026686
 C        -8.5933658018       -0.1292537262       -8.8604822166
 C        -8.9122750827       -1.0662084439      -10.0826520137
 C        -7.8833863113       -0.8866595988      -11.1521372895
 O        -6.6880230734       -0.8993132258      -10.8663675251
 C        -8.2811678905       -0.7445767384      -12.6878223124
 C        -7.7451042566        0.5983600570      -13.2611821454
 O        -8.5913100438        1.3708187300      -13.6260127134
 C        -6.3481765598        0.9082146642      -13.5515855812
 C        -6.1035598643        2.3839099947      -13.7310408233
 C        -4.6398459683        2.5495264406      -13.2894870477
 O        -3.7377560008        2.2615164740      -14.0326286391
 C        -4.2968358699        2.8032439896      -11.6996750864
 C        -3.1387368106        1.8956842738      -11.0146859514
 O        -2.6344317476        2.3365958106      -10.0246952043
 C        -2.5475755742        0.5448049235      -11.4232858306
 C        -2.0820025912       -0.1878589981      -10.1596827260
 C        -0.7250682421       -0.8395586546      -10.2592334006
 O         0.0650280797       -0.4764364836      -11.0536442805
 C        -0.2086997902       -1.7886383570       -8.9897813717
 C         0.1995964012       -3.1336755086       -9.5175322455
 O        -0.6119792795       -4.0486790236       -9.2703772706
 C         1.4183485058       -3.3336998413      -10.4437750942
 C         1.8703053966       -4.7590753541      -10.7925911437
 C         3.1155266156       -4.7004229633      -11.8321641335
 O         4.2172742157       -4.3894130647      -11.5273619696
 C         2.7744086670       -4.8869589239      -13.5210899320
 C         3.2965043394       -3.4967696552      -14.2255628132
 O         2.5117332788       -2.6325315865      -14.4637495398
 C         4.7990855125       -3.3063687349      -14.5083928687
 C         5.4820764752       -2.3749034198      -13.4022894011
 C         6.9323151576       -2.4618261869      -13.3623685439
 O         7.7234798575       -3.0863195107      -14.0746549766
 C         7.4660014938       -1.5832488618      -12.2388837350
 C         7.4771033123       -0.1292880141      -13.0091239549
 O         6.4113492172        0.4475501464      -13.0694104515
 C         8.7781903087        0.4662806485      -13.6009323705
 C         8.4946110861        1.5848985140      -14.7665740369
 C         8.1478684653        0.8278763381      -16.0118618889
 O         8.4239129293       -0.3173408039      -16.1939428075
 C         7.3667347040        1.6559947751      -17.1026626331
 C         6.7460570965        0.3247285227      -17.9585028588
 O         7.2424556066       -0.0240332968      -19.0059970039
 C         5.4740560933       -0.2664304480      -17.3704210670
 C         4.7695033595       -1.2224428427      -18.3881351869
 C         5.4831296679       -2.5358510590      -18.7659076187
 O         6.0971400845       -3.2674540166      -17.9883949308
 C         5.4692662122       -3.1429520719      -20.1743486285
 C         6.8388105803       -3.8367688346      -20.4239293688
 O         7.0437871561       -5.0074654617      -20.0595429091
 C         7.9915274139       -3.0571316545      -20.9740980841
 C         9.2915574395       -3.7879462018      -20.6938565637
 C         9.5761041714       -3.6358049389      -19.1916834759
 O         9.2731922396       -2.6512992102      -18.5854747522
 C        10.1238138076       -4.8759583727      -18.4178111715
 C         8.9725382447       -5.5402698185      -17.6556517592
 O         8.4559222006       -4.8702532869      -16.7950444185
 C         8.4848566145       -6.9504785633      -17.8133033278
 C        10.9068562927       -5.8788576484      -19.3624267921
 C        11.0731173129       -4.4472377358      -17.2581158067
 C         4.2885072982       -4.1673236202      -20.2861356585
 C         5.3838143121       -2.0742579421      -21.3274123155
 C         6.2004182547        2.5682013317      -16.5305380818
 C         8.5244038303        2.3275771108      -17.9915727625
 C         6.5653965341       -1.5837345343      -10.9338524157
 C         8.9356607781       -2.0630287500      -11.8655505541
 C         3.4654184920       -6.1614736977      -14.0060880228
 C         1.2524779498       -5.0349894087      -13.7955045247
 C         1.0228063783       -1.1010573540       -8.4572387097
 C        -1.2252525313       -1.8509252640       -7.8770470901
 C        -3.6827444829        4.3173607238      -11.7652902803
 C        -5.5248098194        2.8053023134      -10.7347237893
 C        -7.7162268877       -2.1170737664      -13.2746326804
 C        -9.7652326039       -0.8063760627      -12.9435243889
 C        -7.9819828601        0.9193834150       -6.1558514855
 C        -8.8304980144       -1.4209714440       -5.5583520307
 C       -15.3159230747        1.8525374165       -3.8429238520
 C       -13.8208134551        1.4215174468       -1.7211542045
 C       -20.2726745811       -3.0595992989       -1.0421449271
 C       -20.4537367181       -1.1756776247        0.7912909715
 C       -15.4969139314       -5.5884891493        4.1202146403
 C       -13.9825012256       -3.5849180786        4.2777544478
 H       -12.5093254293       -5.9882905506        1.4292166652
 H       -13.6735906887       -6.8792586874        2.4305902670
 H       -12.4809832508       -5.6505349688        3.1744028972
 H       -17.9411383641       -4.2063839256        3.8946984036
 H       -17.7966837417       -4.9287214278        2.4356175350
 H       -18.6035482115       -2.0679318902        2.7918066778
 H       -19.5853681640       -3.4477084060        2.2777196412
 H       -18.7540325763       -1.9162259333       -3.0312151216
 H       -17.3386722484       -2.4546707858       -2.1256734528
 H       -17.6544699763        0.2668870670       -3.0555119300
 H       -16.5595544761       -0.8468966475       -3.9938151825
 H       -12.8114185444        1.5752452261       -4.4084075871
 H       -13.3161752421        0.6863599905       -5.7786600181
 H       -11.6397959356       -1.0319637612       -5.5938358739
 H       -10.9727076405       -0.2983867863       -4.1260367291
 H        -7.5177300993       -0.1589794155       -8.7120282669
 H        -8.8822084411        0.8877843194       -9.1621377351
 H        -9.8756696141       -0.9666128582      -10.5145541062
 H        -8.9893034423       -2.1390543030       -9.7549360886
 H        -6.0754970280        0.4052991842      -14.4766484849
 H        -5.7977827665        0.3153054801      -12.7774540288
 H        -6.7843170144        2.9214584861      -13.0587553705
 H        -6.1619264066        2.7453277616      -14.8070185511
 H        -1.6718702489        0.7328815527      -12.0433846564
 H        -3.2897208383        0.1308505533      -12.0303051898
 H        -2.9061939330       -0.8605671252       -9.8266720385
 H        -2.0210003959        0.4899714741       -9.3193948936
 H         2.3404518308       -3.0208147037       -9.9695787882
 H         1.3906203987       -2.7574316969      -11.3693858927
 H         0.9917167348       -5.3016779975      -11.1579951286
 H         1.9617768575       -5.3543394075       -9.9569296719
 H         4.9680011244       -2.9772273691      -15.5584206485
 H         5.2751531497       -4.2350280020      -14.5912632238
 H         5.0368750330       -2.6326643320      -12.3883596078
 H         5.1372551550       -1.3410241351      -13.6006026583
 H         9.5425922853       -0.3183269811      -13.9376126873
 H         9.2434895866        1.0011417440      -12.7276132444
 H         9.2447342926        2.3282966257      -14.9621805918
 H         7.5332942406        2.1295739452      -14.4694790088
 H         4.7438968661        0.5673200734      -17.1912643295
 H         5.6239871920       -0.7501831471      -16.4204431142
 H         4.6497740823       -0.6431841676      -19.3033691101
 H         3.6778109565       -1.5582703726      -18.1256815199
 H         8.0150367745       -2.0263606255      -20.5420227834
 H         7.8151514331       -2.9797197065      -22.0800200938
 H        10.0831067332       -3.1440079180      -21.0864072822
 H         9.2407010620       -4.8947347927      -20.9362353784
 H         9.3275814377       -7.6238952068      -18.1379369453
 H         7.6443954684       -7.0028903789      -18.5121940611
 H         8.1136404322       -7.4256304134      -16.9752085667
 H        11.3661403871       -6.6913490312      -18.6947527019
 H        11.6289123244       -5.3222062386      -19.8328613063
 H        10.3349363334       -6.3718897379      -20.1519068562
 H        10.6954571813       -3.6740481496      -16.5966033196
 H        11.9481671090       -3.8566508616      -17.6853556342
 H        11.5345823747       -5.3547970967      -16.7946837865
 H         4.0255561022       -4.3399612884      -21.3008416319
 H         3.4169133009       -3.7003645265      -19.8182029898
 H         4.5160270561       -5.1145016008      -19.7823884581
 H         5.6389725938       -2.3704951961      -22.3195303754
 H         5.9824210702       -1.1566222922      -21.0642005365
 H         4.3378025830       -1.7111640566      -21.4294222706
 H         5.4660544862        2.0027294271      -15.9098295321
 H         5.6080372507        2.6961921379      -17.4489000410
 H         6.4890778006        3.4640747394      -16.0305230825
 H         8.2337170115        2.3177616105      -19.0521197307
 H         9.5203893501        2.0117973813      -17.7136651464
 H         8.5424881161        3.4016439290      -17.8335599981
 H         5.5030586391       -1.8084797159      -11.0917748696
 H         6.4035384753       -0.5315641084      -10.4297218687
 H         6.9919358819       -2.2508487012      -10.1739326215
 H         9.5494582283       -2.5960948389      -12.6655760457
 H         8.7582863371       -2.7922021854      -11.0460654368
 H         9.5194355617       -1.2553802040      -11.3995313096
 H         3.2276259175       -6.9895697410      -13.3924717647
 H         4.5306126685       -6.0792201068      -14.1242098342
 H         3.2651494905       -6.3831220595      -15.0524843564
 H         0.8281015787       -5.9210738418      -13.1920696512
 H         1.1704451004       -5.1653952060      -14.9027706309
 H         0.7622988266       -4.1794549010      -13.3374065752
 H         1.6469793327       -0.7288163621       -9.2671733595
 H         1.5391534801       -1.7800030979       -7.7786219405
 H         0.7240516501       -0.2387914354       -7.9317345599
 H        -0.9174518341       -2.5511092455       -7.0752196561
 H        -2.2410894948       -2.0733864614       -8.1451505479
 H        -1.3378895545       -0.8783055145       -7.5108217958
 H        -2.7725207133        4.3225936295      -12.3762884245
 H        -3.2510324900        4.6989549638      -10.8386294236
 H        -4.3336374939        5.1163801892      -12.0615879028
 H        -5.6246879720        3.7801540370      -10.2764209239
 H        -5.3186202958        2.0116914494       -9.9556899292
 H        -6.4946355118        2.4504449145      -11.1302555841
 H        -6.6326950654       -2.2041641778      -13.1323867464
 H        -8.0159519477       -2.2749707492      -14.2967375256
 H        -8.2395451045       -2.8480202351      -12.7125028234
 H       -10.2259672741       -1.6893889668      -12.5211403940
 H        -9.8568968554       -0.7520324940      -14.0551152180
 H       -10.1935850323        0.1914512184      -12.6064831906
 H        -8.1855383233        1.7604584625       -6.8959743172
 H        -7.0512002761        0.4610900347       -6.3868129502
 H        -7.9778440393        1.3323196428       -5.1267016086
 H        -8.8341850057       -1.2055536771       -4.4691460090
 H        -7.9333351162       -1.9216472541       -5.7538040277
 H        -9.5180006087       -2.1660434573       -5.8444764644
 H       -15.8570983033        2.5909073637       -3.1680248759
 H       -16.0027463548        1.3109615781       -4.4785993735
 H       -14.4428664333        2.4410726732       -4.2449154025
 H       -12.8935747233        1.0458684026       -1.5771232072
 H       -14.5373376931        1.2918259045       -0.8890361331
 H       -13.6948016239        2.4653029290       -1.9448834342
 H       -21.0127104556       -3.4642538224       -0.4816344865
 H       -19.6713300722       -3.9005794342       -1.4405186254
 H       -20.7779931114       -2.5922386145       -1.8572132199
 H       -20.9884138107       -1.7862044915        1.4432288779
 H       -21.2332034840       -0.6606135667        0.2187652518
 H       -19.9267916982       -0.5567298330        1.5207883559
 H       -15.9716513658       -6.3433415517        3.4815743636
 H       -16.0958537107       -5.3908285244        4.9659506636
 H       -14.6683933518       -6.0956501859        4.6263273076
 H       -13.0825936518       -4.1914676266        4.3684270589
 H       -14.3857919971       -3.4185221635        5.2830063490
 H       -13.6598921142       -2.6378488981        3.8417764954
 Na      -15.4733721110       -2.4455481961        0.4396744456
 Na        8.0051257647       -2.7657304186      -16.5218418266
