232

 C       -14.0652186570       -6.1402943988        2.3195258641
 C       -14.4390179599       -4.6460199070        2.3645168931
 O       -14.3081372753       -3.9868023452        1.3599197497
 C       -14.9895082867       -3.9633858148        3.6415078417
 C       -16.0339420986       -3.0371999559        3.1314459916
 O       -15.9651306562       -1.8539306384        2.9355895873
 C       -17.3137550813       -3.8458001943        2.9146592998
 C       -18.4936094801       -2.9838760137        2.1143389750
 C       -18.2746835451       -2.8724212011        0.6252407611
 O       -17.2688631116       -3.3144998033        0.0956960668
 C       -19.3339489626       -2.2649198013       -0.1945000104
 C       -18.6231227943       -1.2009291779       -1.2411676602
 O       -18.8884821834       -0.0400728593       -1.0815017859
 C       -17.7365226047       -1.8249217015       -2.3013650090
 C       -16.7657477003       -0.6872475785       -3.0403412294
 C       -15.5781485002       -0.1745868167       -2.1852945633
 O       -15.2418489961       -0.6958469843       -1.1220319023
 C       -14.6871120220        0.8740774518       -2.7917977070
 C       -13.7277984938        0.0462167234       -3.6989421990
 O       -13.8378834186       -1.1605498869       -3.7287864666
 C       -12.8108446830        0.7618081043       -4.7207540585
 C       -11.6232251681       -0.0587594980       -5.2969644697
 C       -10.5499357993        0.7439737534       -5.9667663820
 O       -10.5557252928        1.9450698634       -6.1784336274
 C        -9.2272818759       -0.1722015693       -6.3181173953
 C        -9.5849711431       -0.8045043855       -7.7420938114
 O       -10.3578066024       -1.7323359539       -7.7274797315
 C        -8.9568743949       -0.2781144626       -9.0541543977
 C        -9.5324148767       -0.6339700948      -10.5148539571
 C        -8.3262769348       -0.9193046684      -11.4778115292
 O        -7.2389790573       -1.2533657129      -11.0180108228
 C        -8.4741329107       -0.8534089536      -12.9729281353
 C        -7.6436245649        0.4076084264      -13.5266105658
 O        -8.2836912021        1.3658186184      -13.9161629282
 C        -6.0763655076        0.4547694251      -13.6126921379
 C        -5.5488285419        1.8940041955      -13.6521843202
 C        -4.3092888533        2.2327623987      -12.8221929853
 O        -3.2294386701        2.0725360194      -13.3313261870
 C        -4.4093670723        2.6341114695      -11.3789902839
 C        -3.1780379362        2.1319796206      -10.5209792247
 O        -2.8365350379        2.8234056589       -9.5722056313
 C        -2.4239185631        0.8755106874      -10.9806987990
 C        -1.9352969411        0.1267933420       -9.8005582042
 C        -0.7885493597       -0.9018082522      -10.1918764667
 O        -0.4269539916       -0.8770410468      -11.3687093417
 C         0.0392333428       -1.5073310384       -8.9794159751
 C         0.5297645480       -2.9120162386       -9.4446634384
 O         0.5606092367       -3.8768426838       -8.6544801878
 C         1.2913840837       -2.9970898070      -10.7363980926
 C         1.3550311892       -4.5052427386      -11.2555372298
 C         2.5490276649       -4.5885040928      -12.2370581358
 O         3.6446348026       -4.5773380357      -11.7970291589
 C         2.5021539273       -4.8409982584      -13.8580797803
 C         2.8590953434       -3.4914765547      -14.3389608822
 O         2.1183771656       -2.6372938738      -14.6363588351
 C         4.3673204927       -3.1864902691      -14.4427764917
 C         4.9739210261       -2.3988938610      -13.2939222620
 C         6.5060770831       -2.2348960945      -13.4541259548
 O         6.9896805329       -2.7880066148      -14.4284597759
 C         7.4395155024       -1.2829324239      -12.5189342155
 C         7.5868111203        0.2083215350      -13.1147995261
 O         6.6163876916        0.8221351957      -13.5446886086
 C         8.9992600220        0.8479794289      -13.3386160235
 C         9.1585040638        1.4269558419      -14.8758006117
 C         8.2973607323        0.6569764955      -15.8941820690
 O         8.3414720480       -0.5455514835      -15.8247545099
 C         7.6546223725        1.3913572241      -17.0206971737
 C         6.9790865655        0.5857248457      -18.1598515971
 O         7.4805787468        0.4942029465      -19.2614459192
 C         5.7317214783       -0.1421932789      -17.8614437053
 C         5.1093137428       -1.0194609689      -18.9983508164
 C         5.7589134199       -2.4485546177      -19.0054987981
 O         6.4620446363       -2.9241745413      -18.1358578378
 C         5.5213232807       -3.4599073944      -20.2594970035
 C         7.0241704241       -4.0861717085      -20.5161244759
 O         7.2467041853       -5.2754606814      -20.2571329446
 C         8.1673201114       -3.1961569118      -20.9062635341
 C         9.5548890278       -3.8532570717      -20.5479289117
 C         9.6302933701       -4.0174911583      -19.0678391576
 O         9.2079720898       -3.0769890848      -18.4330724365
 C        10.0822787867       -5.2865108633      -18.2456174568
 C         8.8207008556       -5.8355083906      -17.3916961396
 O         8.3117319021       -5.1106114965      -16.5714068504
 C         8.4372190525       -7.3653005114      -17.3948128859
 C        10.8338520782       -6.3475979380      -19.2194325992
 C        11.1380279545       -4.7034468257      -17.2495222652
 C         4.5179670708       -4.6208966034      -19.8340555352
 C         5.0941562086       -2.7363856538      -21.5470083184
 C         6.7659189274        2.5106885034      -16.4920291503
 C         8.8846981737        2.2472480701      -17.7618863757
 C         6.8200708727       -1.1735969441      -11.1228192211
 C         8.8781523909       -1.8493577941      -12.4873634838
 C         3.3381052356       -5.9176694070      -14.3128332373
 C         0.9629050217       -5.1668943468      -14.1574262615
 C         1.0872839407       -0.4902110988       -8.7168120919
 C        -1.0303104722       -1.7414399006       -7.8233150998
 C        -4.0972530518        4.2351293290      -11.4797492555
 C        -5.7397608249        2.2653581730      -10.7290490038
 C        -7.8456867650       -2.2713918524      -13.3666462418
 C        -9.9061140589       -0.6743193378      -13.6012638267
 C        -8.0262579672        0.7818092560       -6.3132885780
 C        -8.9647223250       -1.4031886684       -5.3977847408
 C       -15.5191510862        1.9042623894       -3.6949260888
 C       -13.9307935700        1.6627387478       -1.7568628320
 C       -20.1097181691       -3.4099702090       -0.8711419231
 C       -20.3542354161       -1.3887828642        0.5978001216
 C       -15.4664764972       -4.9623107165        4.7213527841
 C       -13.8205078874       -3.1654212220        4.2424131665
 H       -13.8988962393       -6.3496985394        1.2542626129
 H       -14.8885526470       -6.7396136236        2.7692562741
 H       -13.3388931466       -6.3079757073        3.0516641209
 H       -17.7761576861       -4.1738670715        3.8912607529
 H       -17.3088091675       -4.8429117538        2.4896193889
 H       -18.5760809793       -2.0215682908        2.5362387978
 H       -19.4382045964       -3.5196863947        2.2001944163
 H       -18.3321709012       -2.2517051802       -3.1043799444
 H       -17.1939502035       -2.6528231535       -1.8835447121
 H       -17.3654218933        0.1705020538       -3.3648733385
 H       -16.4209608160       -1.2020972546       -3.9408583941
 H       -12.5065333842        1.6889301253       -4.2386730878
 H       -13.4856977626        1.1074617928       -5.4652531371
 H       -11.8516667422       -0.8572097640       -6.0547738935
 H       -11.0947335721       -0.7060761567       -4.5953135078
 H        -8.0014474673       -0.8331460789       -9.1352695658
 H        -8.8503614528        0.7989043118       -8.9316789480
 H       -10.2214361541        0.1162619264      -10.9465013769
 H       -10.2499337514       -1.3988947902      -10.4348008048
 H        -5.7615918471       -0.0532589041      -14.5831568215
 H        -5.5089783614       -0.1005738209      -12.8121543647
 H        -6.3049158472        2.7183645113      -13.5362074610
 H        -5.2355441365        2.1251460968      -14.6880758317
 H        -1.6579453161        1.0757460410      -11.6974434169
 H        -3.1823158055        0.1940090178      -11.4303102556
 H        -2.7293761061       -0.3529398321       -9.2612225211
 H        -1.4907666435        0.7920881228       -9.0321171200
 H         2.2577509577       -2.5058903694      -10.7415969455
 H         0.9013615675       -2.4110655480      -11.5634483364
 H         0.3068161450       -4.7432899784      -11.5352320652
 H         1.5531211169       -5.1559806225      -10.3325321509
 H         4.4916086653       -2.4847301280      -15.3546545935
 H         5.0020639113       -4.1095933519      -14.5694351077
 H         4.7047895751       -2.9386033605      -12.3843475638
 H         4.4999448069       -1.3732786258      -13.1528987457
 H         9.7782447958        0.1067831310      -13.2848215289
 H         8.9855591656        1.6760466642      -12.6203285739
 H        10.2200150024        1.3900111027      -15.3685681583
 H         8.9874463544        2.4834762653      -14.6919960754
 H         4.9731385200        0.5234510001      -17.5700177981
 H         5.8664367483       -0.8557955032      -17.0142515876
 H         5.1802250722       -0.5503312487      -20.0268600558
 H         4.0488537228       -1.2014548978      -18.8609283563
 H         8.0615176582       -2.2794476533      -20.3068078811
 H         8.1120919333       -2.8808416603      -21.9781172404
 H        10.3230712629       -3.1578457111      -20.9146583733
 H         9.7565068862       -4.7684267397      -21.0409406133
 H         9.0265525566       -8.0160596339      -16.7022096010
 H         8.5167369176       -7.8009380817      -18.3619296150
 H         7.4087819986       -7.5584903845      -17.1146515283
 H        11.6182537224       -6.8282505144      -18.5459501265
 H        11.3728261508       -5.8645573135      -20.0397837375
 H        10.1947204751       -7.2450556754      -19.4346984232
 H        10.6708997143       -4.3330368960      -16.3456298620
 H        11.6316524499       -3.8446565093      -17.7576530610
 H        11.8474731244       -5.4178897256      -16.8784943550
 H         4.1314447025       -5.1290620976      -20.7078500091
 H         3.5939392473       -4.0649804201      -19.5272735222
 H         4.8760891974       -5.2516948410      -19.0929972782
 H         5.1029299805       -3.4291080248      -22.3626542209
 H         5.5104574340       -1.7519632204      -21.7117622429
 H         4.0487239091       -2.3933991474      -21.4491200632
 H         6.3346556664        2.0848551300      -15.5448217664
 H         6.1084729971        2.7678614562      -17.3023803278
 H         7.3606680636        3.4173576538      -16.1760081447
 H         9.0185510285        1.8408803047      -18.7576416054
 H         9.8730595542        2.1517471867      -17.4441403292
 H         8.4734224868        3.1977380496      -18.0055936801
 H         5.7871918746       -0.7537517551      -11.0423334758
 H         7.5213064241       -0.6815593618      -10.4772238807
 H         6.6054242249       -2.0826455626      -10.6609697188
 H         9.3938920133       -1.9324060581      -13.3992055772
 H         8.8821850310       -2.8099231910      -12.0389094260
 H         9.5801926618       -1.2283080407      -11.7931971718
 H         2.9791507366       -6.8263569462      -13.7629196144
 H         4.3590485046       -5.8734299379      -14.0099458550
 H         3.2695985311       -6.2356317796      -15.3055100709
 H         0.6754605243       -6.1645715948      -13.7236902570
 H         0.8126909034       -5.0915518175      -15.2525757963
 H         0.3946194960       -4.2985937228      -13.7380252069
 H         1.7935682022       -0.4614268856       -9.4941198885
 H         1.6833124617       -0.7840549153       -7.8922621342
 H         0.5567140709        0.3947805097       -8.4165205829
 H        -0.6229591427       -2.3791693013       -7.0751749560
 H        -1.9471632925       -2.1586230747       -8.1795069562
 H        -1.1903611296       -0.8185107384       -7.2440162402
 H        -3.1452055802        4.5112852947      -11.9162323844
 H        -4.1335205394        4.6910705332      -10.5518085314
 H        -4.8098374216        4.8410291566      -12.0531995008
 H        -5.9024368565        2.7108888134       -9.7554858544
 H        -5.6195225732        1.1728325116      -10.4950890211
 H        -6.6086650284        2.3380050382      -11.3847790908
 H        -7.1457392787       -2.5472152885      -12.6105875453
 H        -7.3470949558       -2.1893925708      -14.2945917148
 H        -8.6696902988       -3.0683896672      -13.3690906959
 H       -10.5339374363       -1.4503169450      -13.0956866909
 H        -9.8924309721       -0.7947439095      -14.6806012540
 H       -10.1841400032        0.2953299298      -13.2006861383
 H        -8.2408499915        1.6678853876       -6.8886859550
 H        -7.1693690792        0.2416309435       -6.7939796760
 H        -7.7718435185        0.9692723769       -5.2867049504
 H        -8.7647314029       -1.0594903392       -4.4223876103
 H        -8.0028962186       -1.8648876155       -5.7381282114
 H        -9.7431466004       -2.1271845739       -5.2960122243
 H       -15.9863427879        2.5604695571       -2.9526101454
 H       -16.2588698695        1.4822938811       -4.4436402006
 H       -14.8110318489        2.3901353305       -4.2716161883
 H       -14.5125549035        1.7446943832       -0.8446869778
 H       -13.6054492908        2.5496016879       -2.2525383875
 H       -12.9728532342        1.1971366668       -1.6010750336
 H       -20.8099346078       -3.7518401690       -0.0787185006
 H       -19.4563683684       -4.2274209229       -1.0254118520
 H       -20.6770535684       -3.1707169113       -1.7634750512
 H       -20.7995421826       -1.9843145589        1.3109500165
 H       -21.1732298679       -1.0401880440        0.0191531446
 H       -19.9753555619       -0.5055561691        1.1505777419
 H       -16.2160426027       -5.7125199535        4.2258458733
 H       -16.0282848007       -4.6647615357        5.6166707510
 H       -14.6708787200       -5.5490465770        5.0383754448
 H       -13.1448689486       -3.9705159133        4.5220452657
 H       -14.0186613024       -2.6149715275        5.1392602474
 H       -13.2474199870       -2.4658234745        3.5370516658
 Na      -15.4485033310       -2.1179880572        0.6626960208
 Na        7.9448685122       -2.8510325844      -16.3861075655
