232

 C       -14.4478230993       -5.7663046720        2.9980361818
 C       -14.6689319264       -4.2989611839        2.6913096979
 O       -14.6581018482       -3.8436335561        1.5475607387
 C       -15.0088375845       -3.2482035224        3.8250756955
 C       -16.3019446779       -2.4535348570        3.3483487826
 O       -16.0675248567       -1.4000428688        2.7296571328
 C       -17.7790490080       -2.6943289888        3.6198325603
 C       -18.6344323421       -2.3496042969        2.5191090721
 C       -18.3218694893       -3.0095036617        1.1802164902
 O       -17.4366714058       -3.8730404544        1.0587581814
 C       -19.1927312052       -2.6716894231       -0.1531038074
 C       -18.3938629464       -1.4972628076       -0.9224610181
 O       -18.5104069201       -0.3213151726       -0.6426213472
 C       -17.3395618747       -1.9932417459       -2.0123272502
 C       -16.6588866824       -0.8049644197       -2.7231888136
 C       -15.3597791239       -0.2713050078       -2.1296191883
 O       -14.8140508035       -0.7869770042       -1.1532686185
 C       -14.6645592133        0.8243065603       -2.9247154493
 C       -13.7663834962        0.0578222539       -3.9423672249
 O       -14.1498804058       -0.9358699363       -4.4581369502
 C       -12.4363666904        0.6164029981       -4.2678841204
 C       -11.5824498448       -0.2360760220       -5.3433046680
 C       -10.3928339879        0.5912698249       -5.8813580624
 O       -10.1343996690        1.7133509443       -5.6004917250
 C        -9.3375719436       -0.1729755833       -6.7730426145
 C        -9.9111027009       -0.3520223714       -8.2396060772
 O       -11.0099023345       -0.8539186474       -8.5092130425
 C        -8.9640577019       -0.1266793850       -9.3140132516
 C        -9.5007639097       -0.6605047244      -10.6077273065
 C        -8.3338508201       -0.9779218940      -11.6134287875
 O        -7.2460380816       -1.2608133635      -11.1271014713
 C        -8.4692857028       -0.9786301228      -13.1544792450
 C        -7.8858596946        0.5299503351      -13.6608455351
 O        -8.6655658362        1.4182863726      -13.8895725171
 C        -6.3911808171        0.5760201548      -13.5613843058
 C        -5.7507659091        1.9157856327      -13.3446473547
 C        -4.5330934346        1.8544262133      -12.3765670969
 O        -3.5195306343        1.3918205172      -12.8499111884
 C        -4.6134668696        2.3741329980      -10.9752429036
 C        -3.2301432104        2.0689514892      -10.1783936814
 O        -2.7080139125        2.7621165247       -9.3672589518
 C        -2.7363865036        0.6234980568      -10.4303916435
 C        -1.5935632970        0.4843813855       -9.4852038099
 C        -0.9925207109       -0.9789110365       -9.6050466411
 O        -1.6737411867       -1.8331656130      -10.0437806740
 C         0.4579228781       -1.1174539903       -8.9820984585
 C         0.8505977371       -2.6228039360       -9.3167421527
 O         0.6903355075       -3.5470497207       -8.5634635069
 C         1.5563245683       -2.8061996637      -10.7000528909
 C         1.2172748242       -4.2225023953      -11.2652386855
 C         2.2598017373       -4.4208943321      -12.4165326047
 O         3.4679713981       -4.3574191182      -12.2509000531
 C         1.7913213306       -4.3882708473      -13.8710069208
 C         2.4767384643       -3.1014944074      -14.3485241984
 O         1.8884881319       -2.0506505130      -14.4924217600
 C         4.0518396285       -3.2881894113      -14.7282591955
 C         4.8322057405       -2.2780201809      -13.8674959185
 C         6.3083855505       -2.3949907843      -13.8509514247
 O         6.9286050068       -3.1675111339      -14.5456230087
 C         7.0572782299       -1.4217777332      -12.7887759350
 C         7.4944150361       -0.1635761606      -13.8327759836
 O         6.7491041610        0.1090872156      -14.7377551755
 C         8.8638080879        0.5616431382      -13.7634168767
 C         9.1682308989        1.5767925544      -14.8808752842
 C         8.8803680521        0.7555420295      -16.2933189171
 O         9.0853067643       -0.3963471326      -16.4693945569
 C         8.2386185097        1.5892624714      -17.5992671371
 C         7.7741831812        0.5743777917      -18.5109525904
 O         8.4544749757        0.2868581655      -19.4890595683
 C         6.3519478384       -0.0063874867      -18.2383483758
 C         5.8980092356       -0.9550902473      -19.3742436875
 C         6.0599502769       -2.4889927707      -19.0778076972
 O         6.4377428419       -2.8514588695      -17.9650740525
 C         5.6810941719       -3.6223002615      -20.1371577789
 C         7.0350853535       -4.5695021817      -20.1393337161
 O         6.9404768996       -5.6726318608      -19.7172161454
 C         8.3751030492       -4.0514545350      -20.8363081013
 C         9.7059872919       -4.5278257442      -20.2690429631
 C         9.9204093343       -4.2985726990      -18.7613886258
 O         9.6506940670       -3.2003165548      -18.2635156470
 C        10.2219081173       -5.5241720330      -17.8231142490
 C         8.8113395700       -6.1164878052      -17.4009664000
 O         8.1418027567       -5.3699266597      -16.7023073773
 C         8.2973340440       -7.4504165981      -17.8885263449
 C        11.2299037854       -6.4757676552      -18.5769557783
 C        10.9383070126       -4.9577189965      -16.5303120950
 C         4.5679761755       -4.5373819945      -19.4695737419
 C         5.3005303214       -3.0758746312      -21.5716668041
 C         7.1128073222        2.6751992995      -17.2080146195
 C         9.4925429663        2.4014837946      -18.0585721282
 C         5.9995404193       -0.7753910118      -11.7504279865
 C         8.2448455623       -2.2283814074      -12.2349608859
 C         2.4396516555       -5.6454498079      -14.5886365042
 C         0.2447454928       -4.3333696157      -14.1521539990
 C         1.3390960699       -0.2043004236       -9.7999241969
 C         0.5210884448       -0.9176823966       -7.4054185615
 C        -4.9212790225        3.9879824579      -11.0568840038
 C        -5.7969232234        1.6475096304      -10.2989539026
 C        -7.5781969809       -2.0905656484      -13.6730245975
 C       -10.0169246999       -1.1134429242      -13.4854245180
 C        -7.9950744494        0.6638612487       -6.7007031716
 C        -8.9981998699       -1.6067556181       -6.2277596060
 C       -15.6767676492        1.5606877480       -3.8412641056
 C       -13.9639378093        1.8404627771       -1.8777388352
 C       -19.3479101036       -3.9760377471       -1.0318565569
 C       -20.6146753558       -2.1532916021        0.1171636132
 C       -15.2855146689       -3.8889935904        5.2057120359
 C       -13.7878061767       -2.3142694718        3.8490545017
 H       -14.1698505255       -6.2608681777        2.0884251283
 H       -15.5103455027       -6.1479546714        3.2537714358
 H       -13.6363810635       -5.9809914988        3.6651877995
 H       -18.0428679494       -1.9940498155        4.4624179445
 H       -18.0495383448       -3.6684497133        3.9356481238
 H       -18.6033194137       -1.2960467568        2.2349597844
 H       -19.7468213638       -2.4812450940        2.5915883879
 H       -17.9772438730       -2.5140127125       -2.7381748179
 H       -16.6909803541       -2.7379085579       -1.4585162334
 H       -17.2891127249        0.0484725767       -2.9160671860
 H       -16.5158003191       -1.2490392055       -3.6666549527
 H       -11.9156761738        0.5575208124       -3.2619187440
 H       -12.5291669182        1.6474391069       -4.5730238284
 H       -12.1773208230       -0.5104863280       -6.1735018823
 H       -11.1051458859       -1.0591549253       -4.9225322020
 H        -8.0550945861       -0.6364881354       -9.1236071813
 H        -8.5720198188        0.9199039251       -9.3997684126
 H        -9.9705119467        0.2772616515      -10.9714291798
 H       -10.0113625850       -1.6260335675      -10.4850304431
 H        -6.0303221698        0.1882452841      -14.5525566178
 H        -5.9744676978       -0.0279775297      -12.7873780330
 H        -6.5113585518        2.6392700013      -13.0110949290
 H        -5.4236712371        2.2134162084      -14.3075298255
 H        -2.4537649525        0.4500293464      -11.4532013425
 H        -3.5628523232       -0.1494171662      -10.2217845748
 H        -1.9549572751        0.6947792984       -8.5028589583
 H        -0.8275545865        1.2460362864       -9.7832767164
 H         2.6302060047       -2.6597844868      -10.4160729918
 H         1.1670232050       -2.0095427422      -11.3667454547
 H         0.1371124333       -4.4128215277      -11.4979841798
 H         1.6701599483       -4.9580612143      -10.5695326196
 H         4.1878419246       -3.0916538448      -15.7733941122
 H         4.4843729846       -4.2033647625      -14.6128415717
 H         4.5406710158       -2.3745711143      -12.8501816780
 H         4.5449435979       -1.2868386972      -14.2992419736
 H         9.6554740284       -0.1751293111      -13.9332828131
 H         8.9693265758        0.9514028239      -12.7287091007
 H        10.1008142528        2.0888806725      -14.6737002831
 H         8.4603440408        2.3593632736      -14.9208082852
 H         5.5830543980        0.7489465376      -18.0821806778
 H         6.3581405534       -0.5572080201      -17.2814463863
 H         6.4105150263       -0.7217647843      -20.2978623079
 H         4.8852553855       -0.8243109921      -19.5682799814
 H         8.3818091293       -2.9690593608      -20.7903250498
 H         8.2738388021       -4.3645483690      -21.8406372431
 H        10.4423668770       -3.9685498491      -20.9312397534
 H         9.9447484424       -5.5372546088      -20.5975624015
 H         8.7224449907       -8.2330984620      -17.1647266205
 H         8.6188018352       -7.8749054943      -18.8277149931
 H         7.2547597973       -7.4513342638      -17.8976950025
 H        12.0677570192       -6.9454096491      -17.9001052195
 H        11.6729886023       -5.7452613431      -19.1851687207
 H        10.9024216798       -7.2792141995      -19.2809691602
 H        10.4418359967       -4.1197993168      -16.1324282424
 H        11.9993007162       -4.6492046976      -16.5772234686
 H        10.7980482518       -5.7841567792      -15.8704577620
 H         4.5224342791       -5.4409916455      -20.0526532547
 H         3.5730164669       -4.0092924428      -19.4844003641
 H         4.8579269391       -4.7186249697      -18.4645170419
 H         5.4046653423       -3.7375004658      -22.4119225988
 H         6.0370131919       -2.2875723308      -21.7488294033
 H         4.2392321526       -2.7333000358      -21.5240373461
 H         6.3730305152        2.2598612334      -16.4588028416
 H         6.5772380728        2.7044880377      -18.0990608861
 H         7.6657114845        3.5603695303      -16.8718735981
 H         9.4505686374        3.4787692355      -17.8051687726
 H         9.7988367273        2.2777086282      -19.0259847346
 H        10.3581141002        2.2319925161      -17.4593730733
 H         5.4516107254       -1.5315020490      -11.1834283822
 H         5.2429740213       -0.2470806328      -12.3454257316
 H         6.4630281998       -0.1217159481      -11.1021303705
 H         8.4249857358       -3.0785870636      -12.8620717764
 H         8.1861717320       -2.7088863599      -11.2793205584
 H         9.2036180253       -1.7142807348      -12.2866128026
 H         1.8196367862       -6.5438107913      -14.3755634073
 H         3.4904419228       -5.7911513448      -14.4896152672
 H         2.2867453950       -5.4137889113      -15.6070064916
 H        -0.3100015081       -4.9898709261      -13.4539505595
 H         0.0158005719       -4.3411718837      -15.2241715552
 H         0.0170062783       -3.2939537775      -13.8809199042
 H         0.9440273663       -0.1671705968      -10.8113447830
 H         2.3855976478       -0.4024749244       -9.8180711936
 H         1.2561113695        0.8587211138       -9.5238628558
 H         1.4857087816       -1.2068954024       -7.0565629184
 H        -0.2359378837       -1.4464360890       -6.8895653633
 H         0.2892589766        0.1091335107       -7.1711448763
 H        -4.1380906903        4.5561854645      -11.5512730089
 H        -4.9480945473        4.4790638717      -10.1458435151
 H        -5.8587734748        4.2408651914      -11.5628874209
 H        -5.8829216680        2.0727288579       -9.3079739728
 H        -5.4344170683        0.5747658305      -10.1858632636
 H        -6.7453450886        1.6082845532      -10.8433119030
 H        -6.5504178600       -1.8255714131      -13.5123547864
 H        -7.6510669805       -2.3116207311      -14.6979256102
 H        -7.8805977435       -3.0680304921      -13.1971556808
 H       -10.4478932753       -2.1152185165      -13.2491464882
 H       -10.1004495485       -0.9443305331      -14.5681929272
 H       -10.5771438451       -0.3213896687      -12.9505713516
 H        -8.2033213724        1.6508098383       -7.1292983862
 H        -7.0986127405        0.2871275102       -7.2373116872
 H        -7.7932748535        0.6852502102       -5.6572903288
 H        -8.6188347012       -1.5733519358       -5.2321444469
 H        -8.2071423864       -2.0940479715       -6.8639789488
 H        -9.7761602038       -2.3035657471       -6.3238770899
 H       -16.4309210723        2.1495125246       -3.4347851462
 H       -16.2062307680        0.9573054805       -4.4649477738
 H       -15.0709387285        2.2247748192       -4.4884769550
 H       -14.5744836295        2.6489651096       -1.5604868172
 H       -13.1619542979        2.3765572998       -2.4232523589
 H       -13.6229363344        1.4181827169       -0.9197881386
 H       -20.1482845914       -4.6001029218       -0.7487773127
 H       -18.3690928218       -4.5634689115       -0.9675979397
 H       -19.4840733093       -3.6115265310       -2.0639260892
 H       -21.3262483882       -2.9153574771        0.2696115648
 H       -20.9621625568       -1.5785163764       -0.7670768188
 H       -20.5013990739       -1.6293943375        1.0455044518
 H       -16.3082954354       -4.4136317303        5.2362970221
 H       -15.2408910260       -3.1192252307        5.9804457592
 H       -14.4295125484       -4.5135981029        5.5061434401
 H       -12.8015956784       -2.7454021765        3.9900608023
 H       -13.9795465823       -1.7179536016        4.7268186403
 H       -13.7343072616       -1.6216383273        2.9529736457
 Na      -15.7503176398       -1.9822662519        0.5555737019
 Na        8.1471088683       -2.9637299926      -16.3419702183
