232

 C       -14.3813684527       -5.0777128576        3.8551444449
 C       -14.6288081161       -3.7226430627        3.2236656684
 O       -14.4614739364       -3.5528018278        2.0492067666
 C       -15.1925030975       -2.5003218944        4.1298680979
 C       -16.4807276783       -2.0109472259        3.3394523296
 O       -16.2586510820       -1.1492993496        2.5577127439
 C       -17.9169476848       -2.5163870356        3.6763655819
 C       -18.8944768772       -2.1625778909        2.5643150359
 C       -18.4946019730       -2.9753940150        1.2807819636
 O       -17.6420835293       -3.8019455364        1.4182749395
 C       -19.0810812042       -2.6839654066       -0.0851455534
 C       -18.0747669112       -1.7671212958       -0.8166080639
 O       -17.6815239767       -0.7625480261       -0.2859959048
 C       -17.5118424266       -2.1802570448       -2.2470896224
 C       -16.7905154320       -0.9869123135       -2.9343422843
 C       -15.5026953035       -0.6066416926       -2.3164076576
 O       -14.9340433061       -1.2237345202       -1.4232341098
 C       -14.7736253210        0.5704710586       -3.0539790034
 C       -13.9071762998       -0.1638536934       -4.1776945276
 O       -14.4026738019       -1.0739396555       -4.7902077904
 C       -12.6118754450        0.5934658293       -4.5062235480
 C       -11.9280858774        0.0373060817       -5.7843546111
 C       -10.4520503737        0.3708450796       -5.7101528147
 O        -9.9785947995        1.0293550602       -4.8057878441
 C        -9.5293892217       -0.3040259318       -6.8189132205
 C       -10.0139040741       -0.1552693169       -8.2451585479
 O       -10.9588286509        0.5333275684       -8.5349798524
 C        -9.1861244148       -0.9797290570       -9.3199809732
 C        -9.5690724318       -0.6706869593      -10.7212584440
 C        -8.4636888630       -1.3413178048      -11.7157032522
 O        -7.3762087110       -1.6352146192      -11.2835258831
 C        -8.6989769069       -1.0356135864      -13.3171668840
 C        -8.0500336201        0.4176983471      -13.5714248198
 O        -8.8226494667        1.3338449744      -13.7653155027
 C        -6.5648266740        0.6748848817      -13.2556466687
 C        -6.2453674469        2.0976447640      -12.7360522995
 C        -4.7939912538        2.0678508843      -12.2498883014
 O        -3.8200284820        1.6542239966      -12.8288230758
 C        -4.6739709930        2.3309615486      -10.6990605405
 C        -3.2115047006        2.1040107863      -10.3324288580
 O        -2.5110027193        3.0291850456       -9.9866560160
 C        -2.5912900049        0.7153378819      -10.3028726328
 C        -1.8218330147        0.3925966380       -9.0448896422
 C        -0.9972741532       -0.8159766961       -9.2500622822
 O        -1.6468091813       -1.8507756545       -9.3969195963
 C         0.5773014274       -0.8174735315       -9.0078854640
 C         1.2007879579       -2.2706209661       -9.4081481373
 O         1.6609224641       -2.9619092642       -8.5291823678
 C         1.3525595494       -2.5240251623      -10.9762295966
 C         1.6468386456       -4.0115062716      -11.1427398397
 C         1.9678131528       -4.6776171080      -12.4458438134
 O         2.9329718657       -5.4153084918      -12.4645760171
 C         1.2316034564       -4.3139543580      -13.9042902749
 C         2.1879785974       -3.2514097794      -14.6364697359
 O         1.6965583886       -2.3497803154      -15.2226989865
 C         3.6996630546       -3.3384770840      -14.6365486753
 C         4.4430537015       -2.2806663728      -13.6657172722
 C         5.9390462739       -2.1358372268      -14.0694733340
 O         6.2958124186       -2.8198990043      -15.0097213869
 C         6.9947851650       -1.3841030908      -13.1064330486
 C         7.5437570353       -0.3950541998      -14.2002789630
 O         6.8199778225        0.3424489789      -14.8515527859
 C         9.0630968831       -0.1648005876      -14.2702791139
 C         9.4133460861        1.0402360975      -15.0906360326
 C         9.1847098774        0.4524684761      -16.6757612109
 O         9.2619439134       -0.7607272996      -16.8679844037
 C         8.9957603991        1.3433803148      -17.9369088473
 C         8.2169215361        0.4856881111      -19.0875856489
 O         8.7345095143        0.2804963193      -20.1518372700
 C         6.8547433084       -0.1002723511      -18.7736665992
 C         6.3748240723       -1.1182197822      -19.8933029445
 C         6.2280159742       -2.5587564058      -19.2739147606
 O         6.3123964020       -2.7449467484      -18.0932858273
 C         5.9767784069       -3.7635750563      -20.2903103585
 C         7.3315880945       -4.5683617011      -19.9409051593
 O         7.2865592694       -5.5516875037      -19.2058096531
 C         8.5511085801       -4.0584622694      -20.6725458782
 C         9.7556037072       -4.8621041396      -20.1207890816
 C         9.9138466071       -4.4783942603      -18.6426076311
 O         9.4105009605       -3.4433905927      -18.2985409406
 C        10.3164443186       -5.5337137097      -17.5910066302
 C         8.9941177348       -6.0422643025      -16.8788210389
 O         8.3946897429       -5.1920826197      -16.2613221918
 C         8.5008297247       -7.4619837444      -16.7971880043
 C        11.2778333569       -6.6242891867      -18.1778923025
 C        11.0267297689       -4.6540933562      -16.4748130172
 C         4.6303241192       -4.4749159892      -19.6626826673
 C         5.7887097671       -3.4758536973      -21.8561858851
 C         8.1685402217        2.6679016515      -17.5925604556
 C        10.3756090320        1.7509185404      -18.5380610973
 C         6.3903803967       -0.5685536576      -11.8302925400
 C         8.0103688261       -2.3945880121      -12.5589847086
 C         1.0988599501       -5.6502312499      -14.6600967373
 C        -0.1600222962       -3.7058110006      -13.8670456855
 C         1.4152609778        0.2739150074       -9.6095033111
 C         0.5703847997       -0.6641139397       -7.4063910134
 C        -5.0224924245        3.8941102786      -10.4108389595
 C        -5.6657873197        1.4961705814       -9.7796598747
 C        -8.0321746537       -2.0140366137      -14.2634141034
 C       -10.2601984947       -1.1318889486      -13.5622348028
 C        -8.1250243548        0.3631499709       -6.6627592383
 C        -9.2419791246       -1.8700126757       -6.3336862173
 C       -15.6305667334        1.6905792765       -3.7057336214
 C       -13.7705067807        1.3017456748       -2.0466907051
 C       -19.0321271829       -4.1177871713       -0.7078808130
 C       -20.4154771707       -1.9496731435       -0.2066087833
 C       -15.5588226443       -2.9606148709        5.6045012932
 C       -14.1154676880       -1.3977112692        4.1416073867
 H       -14.1813325928       -5.8000035613        3.0184770928
 H       -15.2082651026       -5.3897691883        4.3888024940
 H       -13.4651628034       -4.9724574212        4.4860209501
 H       -18.2347256469       -2.1356761889        4.5901743353
 H       -17.7189008124       -3.6362266449        3.7265168528
 H       -19.1396239099       -1.0688590995        2.4589110046
 H       -19.8523997321       -2.6600484944        2.7640943360
 H       -18.2934147472       -2.5293479314       -3.0040376681
 H       -16.8860452538       -3.0939554231       -2.1369242688
 H       -17.3888497506       -0.0884332826       -3.0391474932
 H       -16.7884674389       -1.2934420705       -3.9592765629
 H       -11.8903824280        0.7156168523       -3.6718825617
 H       -12.9853893900        1.6334458900       -4.6580510372
 H       -12.2703567954        0.4903858290       -6.6781950425
 H       -12.0726551940       -0.9872293947       -5.9667028169
 H        -9.4957101143       -2.0346457051       -9.0541350380
 H        -8.1461063413       -0.9352833120       -9.1353891533
 H        -9.7561181855        0.3752758986      -10.9672960918
 H       -10.5914093365       -1.1705579203      -10.7099488753
 H        -5.9259317783        0.4078435920      -14.0953402588
 H        -6.1828545944       -0.1096522675      -12.5193835871
 H        -6.9586384963        2.1857568453      -11.9226408175
 H        -6.5622152610        2.9255629993      -13.4428795653
 H        -1.8770068101        0.5919975019      -11.1405501934
 H        -3.4015060615       -0.0035054192      -10.4579313686
 H        -2.4871236052        0.2675387018       -8.1921856287
 H        -1.2152687096        1.2124989460       -8.7139698156
 H         2.2609476318       -1.9546329881      -11.2627805373
 H         0.3920094781       -2.0836892634      -11.3387060540
 H         0.8290674774       -4.5587235237      -10.6091226933
 H         2.4883590737       -4.3214325599      -10.5006423610
 H         4.0640158752       -3.1041862156      -15.5548310469
 H         4.0237863554       -4.3731310036      -14.4418408639
 H         4.4144321660       -2.6284324973      -12.5773738508
 H         3.9909036948       -1.2401146263      -13.6899215949
 H         9.5474431111       -1.1037540902      -14.5501188291
 H         9.2545227971       -0.1753292615      -13.2105853297
 H        10.4265408362        1.2298302060      -14.8730741011
 H         8.7434525739        1.8970245850      -14.9207394537
 H         6.1175460126        0.6546739050      -18.6019386666
 H         7.0127759256       -0.6749609514      -17.8174659056
 H         7.0991304020       -1.1709554237      -20.7357061610
 H         5.3851939229       -0.7939394066      -20.2536824331
 H         8.6719307222       -3.0139971078      -20.4428465978
 H         8.4935452285       -4.1616158805      -21.7812640875
 H        10.5377374303       -4.5503454643      -20.7711990758
 H         9.3937253329       -5.8977469063      -20.1323588395
 H         9.1747524530       -8.2219456583      -16.6746489688
 H         7.8632237969       -7.6281803107      -17.6848731608
 H         7.8755490536       -7.6096680699      -15.8845534761
 H        12.0728588944       -6.9458154474      -17.4291925923
 H        11.9520394036       -6.1362927708      -18.8793242891
 H        10.7717664539       -7.4102761766      -18.7729483321
 H        10.4568382736       -3.6772580331      -16.3406544103
 H        12.1102593571       -4.5368791964      -16.6429228399
 H        10.9287026543       -5.2993821588      -15.5334434355
 H         4.4843111495       -5.4948879407      -20.0755671954
 H         3.7997141437       -3.8586147713      -19.8809778964
 H         4.8153244583       -4.6275761012      -18.5854926280
 H         5.5840380765       -4.4500328291      -22.3795148321
 H         6.6446456879       -2.8507714006      -22.2137629778
 H         4.9526664180       -2.8014840922      -21.9890455524
 H         7.2320679613        2.4085395622      -17.1958845030
 H         8.2090483736        3.2630361181      -18.5467147381
 H         8.7092806054        3.3385078049      -16.9175721159
 H        10.7170045006        1.0435736882      -19.2472358778
 H        11.2185737217        1.9122288389      -17.7909203593
 H        10.3575958422        2.7615607381      -18.9120747042
 H         6.0741356263       -1.2984549988      -11.0576786791
 H         5.6608892761        0.1003747660      -12.2292731846
 H         7.2491709215        0.0107508102      -11.4490966839
 H         8.6676048660       -2.6726712064      -13.3838980625
 H         7.6444329923       -3.3099290906      -12.1042599637
 H         8.6127959681       -1.8717903239      -11.7609127613
 H         0.2665284314       -6.1999001746      -14.3126180761
 H         2.0041678048       -6.2714485461      -14.5330791729
 H         0.9537250284       -5.3018898786      -15.7200793906
 H        -0.6254998336       -4.0389538818      -12.9408160607
 H        -0.8409362561       -4.0319414585      -14.6672259822
 H        -0.1837394511       -2.5859400979      -13.8412365288
 H         1.4508141747        0.2256283579      -10.7148757041
 H         2.5059505495        0.2377770094       -9.3379950719
 H         0.9954513551        1.2377868288       -9.3527794635
 H         1.5416853108       -0.8691278787       -6.9536667204
 H        -0.2259378230       -1.2839789155       -6.9407240877
 H         0.4124345825        0.3956728920       -7.2376622552
 H        -4.4719256869        4.6107924658      -11.0308358754
 H        -5.0084849829        4.2811076417       -9.3331082875
 H        -6.0804257701        3.9727588458      -10.6984438529
 H        -5.9263287008        0.5220791228      -10.2266871333
 H        -6.5359413466        2.0907351031       -9.6515748691
 H        -5.1141666952        1.2349757014       -8.8417204345
 H        -6.9465801347       -2.1281866326      -14.2154645127
 H        -8.3427181705       -1.8636707450      -15.3300111109
 H        -8.3537185988       -2.9745059365      -13.9994487761
 H       -10.5467256873       -2.0848613355      -13.1675993524
 H       -10.5005820668       -1.1292355403      -14.6318878164
 H       -10.9330101464       -0.3600277188      -13.2368971517
 H        -7.8886180858        1.2081098345       -7.2620161022
 H        -7.3247438006       -0.3669217256       -6.6783678603
 H        -8.1799471876        0.8982439487       -5.6994566242
 H        -8.7354636624       -1.8271272616       -5.3224357201
 H        -8.6893531469       -2.4773027157       -7.0151685390
 H       -10.2291545981       -2.3729328040       -6.0762305606
 H       -16.4236208924        2.0160866743       -3.0606371580
 H       -16.0003434697        1.3924417326       -4.7172778744
 H       -15.2143553972        2.5972086530       -3.8621543628
 H       -14.2979172917        2.1268146241       -1.5081550125
 H       -13.0222872711        1.8056006731       -2.5922823002
 H       -13.2134262458        0.6698304079       -1.3817452349
 H       -19.3794415376       -4.8491701514        0.0710700536
 H       -18.0710929198       -4.3807612248       -0.9300011614
 H       -19.5984704711       -4.2215402082       -1.5847824607
 H       -21.1216440781       -2.5633044474        0.3066128408
 H       -20.6489243985       -1.9936514929       -1.2229848362
 H       -20.4013651660       -0.8972782000        0.0660703970
 H       -16.1697071158       -3.8606033421        5.6318354257
 H       -15.8304422478       -1.9851100214        6.1423341216
 H       -14.6514078429       -3.3795736803        5.9549031616
 H       -13.2569534731       -1.7138243608        4.7119565403
 H       -14.4700338281       -0.4406877507        4.4958236601
 H       -13.8315076223       -1.2600288962        3.1425964113
 Na      -15.4899088807       -2.1599023847        0.5618476229
 Na        8.0430402226       -2.7896319676      -16.5018272485
