232

 C       -14.3325215125       -4.9283388715        3.9587284385
 C       -14.6798731487       -3.6096780544        3.3362714082
 O       -14.4688329656       -3.4534668427        2.1215491821
 C       -15.2111702410       -2.4318660392        4.2177248460
 C       -16.5393772767       -1.9154399586        3.4807776321
 O       -16.3581741963       -1.2397676433        2.4713615160
 C       -17.9778253668       -2.4507410131        3.7604220577
 C       -18.9035729888       -2.1743496132        2.6250080018
 C       -18.4863096549       -2.9961826084        1.2976499590
 O       -17.4974164710       -3.7022783991        1.4036066164
 C       -19.0345723257       -2.7290656104       -0.1718638998
 C       -17.9883626372       -1.7713586963       -0.7623658068
 O       -17.6578245951       -0.6598038991       -0.3061596364
 C       -17.4183901185       -2.2055269411       -2.1773618947
 C       -16.8445338273       -0.9767088039       -2.8867290536
 C       -15.5179533757       -0.5863859344       -2.2853400644
 O       -14.7698747471       -1.3561223202       -1.5585992119
 C       -14.7578010256        0.5560883417       -2.9773672370
 C       -13.9698290007       -0.0900376187       -4.2597353030
 O       -14.4158587717       -1.0636667432       -4.7672050937
 C       -12.7177951059        0.5714897250       -4.5857754019
 C       -12.0190999021        0.0620395579       -5.8092405735
 C       -10.4608389137        0.3173449234       -5.7101977183
 O       -10.0525864560        0.9772059665       -4.7981721722
 C        -9.5035369640       -0.3598191603       -6.6711910562
 C        -9.9796559664       -0.3183650902       -8.2023607258
 O       -10.7144090019        0.6046935408       -8.5559557087
 C        -9.2918558821       -1.1730462178       -9.3176755685
 C        -9.5664507823       -0.7527175389      -10.7530469977
 C        -8.5136150450       -1.1645606628      -11.7671736367
 O        -7.5326654969       -1.7593492405      -11.3726554132
 C        -8.7640050747       -1.0290838715      -13.2208344007
 C        -8.1212181417        0.4486978895      -13.4336963249
 O        -8.7559697425        1.3670504377      -13.8240640165
 C        -6.6156994289        0.5709580522      -13.2095072208
 C        -6.2515040793        2.0482521658      -12.7072256682
 C        -4.8868280854        2.0140011277      -12.1611641206
 O        -4.0084881489        1.6561287008      -12.9301222632
 C        -4.6974864964        2.4302697589      -10.6664169555
 C        -3.2300703724        2.2824347939      -10.2202474621
 O        -2.5001680936        3.1872548180      -10.0016302344
 C        -2.6654086209        0.7317164261      -10.3073985969
 C        -1.8360007792        0.3841887810       -9.0816019114
 C        -1.0168666543       -0.9010893589       -9.2731253956
 O        -1.4402284606       -1.9943598408       -9.5025902642
 C         0.5437204599       -0.7828654654       -8.9497537956
 C         1.1997656833       -2.1233922518       -9.4003779213
 O         1.8160526031       -2.8621852202       -8.6707237169
 C         1.3441483637       -2.4971912423      -10.9369357658
 C         1.5327119537       -4.0197243121      -11.0105531087
 C         1.8872928010       -4.5385948925      -12.5001631227
 O         2.8012363272       -5.3392241096      -12.5672712280
 C         1.1408518669       -4.3118571141      -13.8128238190
 C         2.1301618055       -3.2623188394      -14.5668886293
 O         1.7176463482       -2.3013672894      -15.1259146150
 C         3.7568348481       -3.4986980152      -14.5794484190
 C         4.3198970882       -2.3139611150      -13.7241319796
 C         5.8208590367       -2.1569063776      -13.9994890673
 O         6.2985170604       -2.5571206504      -15.0294393562
 C         6.8564050363       -1.3453562907      -13.1870911104
 C         7.5466516552       -0.3495754307      -14.0840530427
 O         6.8597901771        0.2578119646      -14.8894387464
 C         9.1400666383       -0.3161847790      -14.2621980589
 C         9.3366255405        0.8036615591      -15.3229223500
 C         9.1733831390        0.4154789440      -16.7611435282
 O         9.2838225727       -0.7431117461      -17.0090380656
 C         8.9650039777        1.4184677851      -18.0090786565
 C         8.2979271796        0.4617321579      -19.1235935089
 O         8.9055462821        0.2498237852      -20.1548711780
 C         6.8895443183       -0.1403789115      -18.8461985351
 C         6.5013986550       -1.1411222738      -19.9152776366
 C         6.1316579320       -2.5728904304      -19.3263906779
 O         6.2524767139       -2.7811478290      -18.1422326169
 C         5.9131287997       -3.7100759777      -20.2319153846
 C         7.2213680594       -4.5930890277      -20.0341262205
 O         7.2895539431       -5.4886358893      -19.2314053069
 C         8.5725406137       -4.2616625371      -20.7803455613
 C         9.7764105281       -4.9775223513      -20.0274119690
 C         9.8313419164       -4.5293738337      -18.6010803989
 O         9.5186346019       -3.3954712267      -18.2539270199
 C        10.4075139222       -5.5139994530      -17.5051606037
 C         9.0636044390       -5.9881855143      -16.8310486325
 O         8.4080688057       -5.1327824331      -16.1867082087
 C         8.6417543558       -7.4363044528      -16.8272172847
 C        11.2776237339       -6.6511224258      -18.1341521924
 C        11.2634839441       -4.7629645495      -16.3922899732
 C         4.6100930031       -4.4537904607      -19.8172685553
 C         5.7973628002       -3.3572310291      -21.6878284777
 C         8.2138993377        2.7313921703      -17.8330217739
 C        10.4095947076        1.6449950750      -18.4838720157
 C         6.3383921401       -0.7190934598      -11.8847622028
 C         7.9176973372       -2.3794477258      -12.6140596378
 C         1.1823976529       -5.6225642157      -14.6949385006
 C        -0.2240730429       -3.6857645438      -13.6826000112
 C         1.4074435535        0.2868987398       -9.5494156245
 C         0.6591013572       -0.6976666045       -7.4435699198
 C        -5.0848234527        3.8842624741      -10.3979038268
 C        -5.5335967294        1.4577232458       -9.7833320336
 C        -7.9147830040       -1.9296536666      -14.0974465315
 C       -10.2364116186       -0.9854107403      -13.5346827670
 C        -8.0849455527        0.3503755615       -6.8152109459
 C        -9.4268092035       -1.8526239776       -6.2545832139
 C       -15.6905068395        1.5439353234       -3.7729193354
 C       -13.8370295129        1.2003577857       -1.9375257940
 C       -19.0703640768       -4.1068715231       -0.9787320057
 C       -20.3675435121       -1.9931536188       -0.1911849369
 C       -15.5408133561       -2.9581923785        5.6852655899
 C       -14.1587958154       -1.3196118340        4.1543743988
 H       -14.0010792743       -5.6503700103        3.2378897898
 H       -15.2349359155       -5.2743385021        4.5106485105
 H       -13.5426117641       -4.6699871535        4.6865694068
 H       -18.3870815325       -1.8169825696        4.5675210518
 H       -17.7596371648       -3.4453158823        4.0806961345
 H       -18.7452217408       -1.0879894630        2.3854935919
 H       -19.9627134511       -2.2278655805        2.9247797922
 H       -18.1884525781       -2.6230852717       -2.8817580115
 H       -16.7386391561       -3.0827368784       -2.0654473406
 H       -17.5052490026       -0.1562375395       -2.9360057614
 H       -16.8367276582       -1.2336459481       -3.9342230788
 H       -12.1586368737        0.1834224654       -3.7332792329
 H       -12.6786922395        1.6626328598       -4.3364056419
 H       -12.3361432437        0.5624826019       -6.6909441996
 H       -12.2409147518       -0.9554248167       -6.0114324128
 H        -9.4702825828       -2.2508053630       -9.0704286531
 H        -8.2354940691       -0.9772002684       -9.1373851329
 H        -9.6051877892        0.3971474631      -10.8698905107
 H       -10.6153271880       -1.0019143607      -10.9650960001
 H        -6.1878405977        0.3984700145      -14.1578456734
 H        -6.1695295216       -0.2484449780      -12.6596415849
 H        -7.1192572549        2.3791304609      -12.1616239261
 H        -6.2197914924        2.6568315052      -13.6128639516
 H        -1.9440792421        0.5987867519      -11.1971122160
 H        -3.4737044926        0.0693518513      -10.4711472710
 H        -2.4234626294        0.2952666271       -8.1273608213
 H        -1.2023452566        1.2030374074       -8.8639057284
 H         2.3010779982       -2.0578842256      -11.3872235618
 H         0.4403989714       -2.1214050854      -11.4478031590
 H         0.6453426758       -4.4889251819      -10.6133058121
 H         2.3377005075       -4.4375209474      -10.4130277816
 H         4.1589169466       -3.2446849968      -15.5994060425
 H         4.1537929147       -4.4180719594      -14.2522567529
 H         4.1406172387       -2.5278057673      -12.6436160602
 H         3.8371408084       -1.3773455712      -13.8999442034
 H         9.2982273458       -1.3939135389      -14.4252072635
 H         9.5531576407       -0.2020182135      -13.2664127688
 H        10.3696378944        1.0862793574      -15.2914003550
 H         8.6881389683        1.6200678169      -15.0532052841
 H         6.1211885046        0.6663321155      -18.7251537247
 H         7.0183442471       -0.6806807226      -17.9166486314
 H         7.3131599959       -1.2115385282      -20.5709816708
 H         5.6339802878       -0.6920085894      -20.4057839625
 H         8.8114078881       -3.2052886068      -20.6287753979
 H         8.6309592019       -4.4203164994      -21.8154288549
 H        10.6339038482       -4.4658988447      -20.5092677396
 H         9.6268904135       -6.0554728609      -20.0799948853
 H         9.3422488769       -8.3279580630      -16.9022047831
 H         7.9072607024       -7.4615417520      -17.6065816632
 H         8.1733852043       -7.7024698939      -15.9049974917
 H        11.4635770609       -7.5296987749      -17.4285287140
 H        12.2386595553       -6.3494036568      -18.3623411025
 H        10.8508257955       -6.8992304927      -19.0919156725
 H        10.5419661327       -4.0031139154      -16.0319845395
 H        12.2177029275       -4.3035080812      -16.7736385234
 H        11.5521526997       -5.4534931418      -15.5569051002
 H         4.5763368746       -5.4111248214      -20.3725509614
 H         3.7560404782       -3.7948419375      -19.9631341746
 H         4.7305284294       -4.7468210892      -18.8241262794
 H         5.7298840148       -4.3524098518      -22.2214267479
 H         6.6181366023       -2.7176507618      -21.9826112485
 H         4.8446446228       -2.8236045505      -21.8672717078
 H         7.2459995081        2.6514461543      -17.2535508100
 H         8.1960325711        3.1607711303      -18.8331032744
 H         8.9435340284        3.4401793283      -17.3225105203
 H        10.9076141637        0.7449979589      -18.7300935093
 H        10.9428093589        2.1793216786      -17.7110936570
 H        10.4957357182        2.3718974766      -19.2804098812
 H         5.7396605821       -1.4506778570      -11.3755759676
 H         5.7847444437        0.1674727755      -12.1629770810
 H         7.1876846098       -0.5082286140      -11.3876859833
 H         8.6135869200       -2.7358995765      -13.3155805948
 H         7.4584146352       -3.2608237708      -12.2285523668
 H         8.4379586675       -1.8739105040      -11.7233160044
 H         0.2255834476       -6.0918701328      -14.5292358752
 H         1.9371437778       -6.2560231769      -14.2536649616
 H         1.3973697670       -5.4184512344      -15.7494108896
 H        -0.8422898842       -4.1936812638      -12.9278788047
 H        -0.7639217824       -3.8242466768      -14.6736482990
 H        -0.2771402679       -2.5792355065      -13.4593099356
 H         1.9613780635        0.1525872459      -10.4862008651
 H         2.1694625626        0.5342250132       -8.8108188655
 H         0.7833144268        1.1836808347       -9.6789247495
 H         1.6340104986       -0.9421813115       -7.1876941806
 H         0.0150340284       -1.4282651442       -7.0326095781
 H         0.4715072371        0.3285701510       -7.0992946039
 H        -4.3382493463        4.4642742531      -10.9846309787
 H        -4.9924948098        4.1987643323       -9.3995480225
 H        -6.1141940417        4.1764795173      -10.7046740732
 H        -6.0717971928        0.6662574678      -10.3897069750
 H        -6.2662827744        2.0130113755       -9.2617488458
 H        -4.8024856059        0.8825060335       -9.1713353668
 H        -6.9366253019       -2.1841529946      -13.7809142200
 H        -7.8774784790       -1.4620999133      -15.0849684590
 H        -8.4448878022       -2.8872636038      -14.2976749425
 H       -10.8075106575       -1.8571763043      -13.1270743190
 H       -10.3958756809       -0.8919574308      -14.6004797097
 H       -10.7087851495       -0.0857943064      -13.2580125126
 H        -8.1910651073        1.1902684040       -7.4286256966
 H        -7.2962561497       -0.3188273898       -7.2436640319
 H        -7.7532825407        0.9110364825       -5.9458251386
 H        -8.9783113242       -1.9615976920       -5.2812308304
 H        -8.8800733221       -2.4593881257       -7.0077720323
 H       -10.4561070178       -2.2674009924       -6.1417736141
 H       -16.4765183299        1.9653839265       -3.1899507258
 H       -16.0647879287        1.1132041949       -4.6599626648
 H       -15.2387177526        2.4782568087       -4.0476236257
 H       -14.3756478654        2.0754062573       -1.4957861580
 H       -12.9321020388        1.5869852240       -2.3434671918
 H       -13.5214156487        0.4913383437       -1.1839822803
 H       -19.6262553126       -4.8369172243       -0.4271680515
 H       -18.0524536940       -4.5684842608       -1.0850175952
 H       -19.4826910469       -4.0161414987       -1.9778699422
 H       -20.9934426123       -2.2636007730        0.5873532956
 H       -20.9047454693       -2.1423167229       -1.1492776945
 H       -20.0763533077       -0.9226359320       -0.2010356537
 H       -16.4748871871       -3.5891652402        5.6529742173
 H       -15.5054533411       -2.0116294199        6.2211362312
 H       -14.8627008394       -3.7018308552        6.0361464210
 H       -13.3470821830       -1.5596599234        4.7986356245
 H       -14.5445126401       -0.3842727743        4.4268800889
 H       -13.8008053151       -1.2151198450        3.0985805764
 Na      -15.4887047501       -2.2031018868        0.5377422579
 Na        8.0846018689       -2.7939069921      -16.4459200823
