232

 C       -14.2318720903       -4.8794439347        4.0942695928
 C       -14.7124990352       -3.5497083730        3.3961332897
 O       -14.4599344857       -3.3663899049        2.2262988350
 C       -15.3481950716       -2.3837059646        4.2435015112
 C       -16.5525105703       -1.9417935173        3.4603125397
 O       -16.4622634146       -1.2472020511        2.4398403102
 C       -18.0164305221       -2.3181491906        3.8214840944
 C       -18.9094765086       -2.1637021676        2.4881984348
 C       -18.2956438700       -2.9456176606        1.3403704105
 O       -17.2863661524       -3.6947908116        1.4004232860
 C       -18.9783319014       -2.7356935536       -0.1194888705
 C       -17.9261564365       -1.8120580360       -0.8366155389
 O       -17.6709529390       -0.7501121428       -0.2785976582
 C       -17.3554520277       -2.1909479056       -2.1663931743
 C       -16.7622580405       -0.9937136581       -2.8948618433
 C       -15.3975027457       -0.6976178815       -2.4397177234
 O       -14.8466635159       -1.3938257786       -1.5799085963
 C       -14.7277244912        0.5844628374       -2.9676371295
 C       -13.9136855952       -0.1368624388       -4.2041455218
 O       -14.4764753948       -1.0385429622       -4.8134424543
 C       -12.6061899993        0.4876179401       -4.6400835867
 C       -11.9756205382        0.1035953753       -5.9186848808
 C       -10.4347490021        0.3309581318       -5.8051896527
 O       -10.0766888880        0.9327740783       -4.8000029553
 C        -9.4927336328       -0.4889046299       -6.7634406675
 C        -9.9188405990       -0.3287286902       -8.2710584980
 O       -10.5735885692        0.6440009111       -8.5883775286
 C        -9.3797273456       -1.3270025521       -9.2453080950
 C        -9.6057920972       -0.8107556875      -10.6345045746
 C        -8.5817122404       -1.2948694603      -11.6285787568
 O        -7.5706282215       -1.9011714011      -11.2979169369
 C        -8.8441375843       -0.8918165459      -13.2435614053
 C        -8.1775595813        0.5283304923      -13.4747521284
 O        -8.8392292562        1.4914894290      -13.8694047754
 C        -6.6888390143        0.5593207163      -13.2184532490
 C        -6.4070504990        2.0020094814      -12.7593015205
 C        -4.9763922744        2.0023185316      -12.1872100954
 O        -3.9835661080        1.6997421324      -12.8296280867
 C        -4.6670343453        2.4791979050      -10.6374837371
 C        -3.1292115842        2.3063331414      -10.2600707301
 O        -2.4215800256        3.2516085601       -9.9507525496
 C        -2.6330464089        0.8706420304      -10.3761416671
 C        -1.7813060260        0.4189647371       -9.1459627619
 C        -0.8851091685       -0.9692178386       -9.3000177577
 O        -1.3581426478       -2.0392110602       -9.6808569813
 C         0.6351606571       -0.8308973393       -8.8586028633
 C         1.4032675566       -2.1123669826       -9.4221234746
 O         1.9796252373       -2.7922299024       -8.6220024896
 C         1.2394399343       -2.4932253025      -10.9634115670
 C         1.3290494597       -4.0039944255      -11.1072982511
 C         1.8568578396       -4.6202376803      -12.4997393520
 O         2.8712057051       -5.3392506561      -12.4531819132
 C         1.1805215199       -4.2431843210      -13.7762541062
 C         2.1256068771       -3.2321215441      -14.5199707482
 O         1.6692872604       -2.1871039064      -15.0427993824
 C         3.6062380698       -3.5446383958      -14.4579735833
 C         4.3357932353       -2.3826058499      -13.7833838599
 C         5.8054844237       -2.2113066039      -14.0434288931
 O         6.1823949761       -2.4617504550      -15.1840945177
 C         6.8472094867       -1.3946599937      -13.0211977041
 C         7.5260065569       -0.3933658781      -14.1478189039
 O         6.8179607501        0.2556696516      -14.8614768779
 C         9.1209570051       -0.1749963249      -14.4175533379
 C         9.4068229139        0.8673691656      -15.4564622813
 C         9.1350163794        0.2796412673      -16.8284777364
 O         9.2216804797       -0.8814581726      -17.2183488223
 C         9.0506600024        1.4048478134      -18.0289819771
 C         8.4073100756        0.4710148061      -19.1583669107
 O         8.9896974855        0.1941739860      -20.1822424652
 C         6.9438283705       -0.0727727543      -18.8971814324
 C         6.5898650058       -1.1582011966      -19.8560005129
 C         6.2619438641       -2.5371070935      -19.2806432512
 O         6.2058234860       -2.6944882467      -18.0512706636
 C         5.9505956035       -3.7849534142      -20.3541042480
 C         7.1624499674       -4.7144142802      -20.0886024482
 O         7.1582239220       -5.5281040403      -19.1723171821
 C         8.5403228782       -4.3496705681      -20.8292279672
 C         9.7898807782       -4.9872472430      -20.0788002710
 C         9.9065622511       -4.5025385071      -18.5717922888
 O         9.5929990261       -3.3741243996      -18.2239501777
 C        10.4568385950       -5.4934671610      -17.4131609262
 C         9.1320527692       -5.9715755947      -16.6357699848
 O         8.4149275819       -5.1415775088      -16.1226605130
 C         8.7213833080       -7.3914639853      -16.8483686190
 C        11.2825877417       -6.6835996526      -17.9602848333
 C        11.4470786461       -4.8745227016      -16.4336829980
 C         4.6830063230       -4.5564570480      -19.9365239439
 C         5.7776678639       -3.1966863254      -21.8257589911
 C         8.2519578703        2.6677020367      -17.9482642148
 C        10.5433738132        1.5907235942      -18.3977266980
 C         6.0402792548       -0.6469481035      -11.8140742020
 C         7.8861373802       -2.6235410294      -12.6597308812
 C         1.2047556740       -5.5027356419      -14.7014403540
 C        -0.2784757887       -3.6481908363      -13.5842599901
 C         1.3100909784        0.5110130198       -9.6153154625
 C         0.7253382304       -0.7950220202       -7.3116197265
 C        -5.1685011553        3.8845000171      -10.4483186113
 C        -5.5511203625        1.4086067329       -9.7163857164
 C        -7.9017721243       -1.9371808993      -13.9615196725
 C       -10.2613976895       -0.7885110291      -13.6941499599
 C        -8.1376956589        0.2285698300       -6.8144401310
 C        -9.4767933474       -1.8728009033       -6.2044908088
 C       -15.7905607143        1.4814522482       -3.6548086289
 C       -13.9642605231        1.2485350385       -1.8451737678
 C       -19.2157396518       -4.0069211318       -0.9569639517
 C       -20.4411939174       -2.0644574397       -0.0965678890
 C       -15.5609767093       -2.7882335289        5.7262590777
 C       -14.2667435803       -1.2854362736        4.2393811757
 H       -13.8084365917       -5.5353348943        3.3610318268
 H       -15.1923983838       -5.3233081726        4.5456045887
 H       -13.5789970976       -4.6378851884        4.9081321307
 H       -18.3208313050       -1.5813480581        4.6459369953
 H       -17.9625956729       -3.3076123164        4.1935078594
 H       -19.0262138842       -1.1681834514        2.0832704405
 H       -19.9558189772       -2.4843303799        2.7080850068
 H       -18.0201922795       -2.6825076658       -2.8381481657
 H       -16.6538478626       -3.0032431691       -1.9347171670
 H       -17.3626189061       -0.0804055848       -2.8071744037
 H       -16.9233647824       -1.1853535220       -3.9766214168
 H       -11.8521687940        0.4857587985       -3.8257292024
 H       -12.8269044899        1.5480578456       -4.6382533216
 H       -12.4626980880        0.6972738547       -6.7396452227
 H       -12.0790608724       -0.9565793509       -6.2715801210
 H        -9.8444155923       -2.2769641750       -9.0648499751
 H        -8.2537972554       -1.4316053066       -9.0799980127
 H        -9.5271300849        0.3100576924      -10.8187155055
 H       -10.6651645065       -0.9303768103      -10.9034036624
 H        -6.0139299792        0.1790647315      -13.9854248776
 H        -6.5196508172       -0.0917836958      -12.4271362395
 H        -7.2526098786        2.1664713062      -12.0846824229
 H        -6.5630715635        2.6099135328      -13.5983353472
 H        -2.0832061010        0.7245909191      -11.3116404018
 H        -3.5623312513        0.2894647285      -10.4855732892
 H        -2.4644588527        0.0451043157       -8.3394812355
 H        -1.2304935052        1.2711691594       -8.6662538549
 H         2.0711880151       -2.0617296756      -11.5791821695
 H         0.2878192095       -2.0535946233      -11.2916760465
 H         0.3084997652       -4.3227416109      -11.0119871008
 H         1.8860458903       -4.5345368116      -10.3434039556
 H         4.0805378132       -3.5826577619      -15.5259897759
 H         3.7648171511       -4.4985268025      -13.9125410312
 H         4.1634119210       -2.4539407767      -12.7455565694
 H         3.8681131542       -1.4471133683      -14.0148191961
 H         9.3535831656       -1.2095430005      -14.6855351720
 H         9.5351785737       -0.1497791596      -13.3971180933
 H        10.5331743357        0.9188329868      -15.5237134526
 H         8.9447101585        1.8309619553      -15.3309873240
 H         6.2976005319        0.8374167739      -19.0585225031
 H         6.8469556375       -0.4164701150      -17.8917939255
 H         7.4717799015       -1.2559681976      -20.4483151013
 H         5.7592316324       -0.8186189529      -20.4342967671
 H         8.6693209779       -3.3317921652      -21.2579961677
 H         8.4688135758       -4.9972389714      -21.6853072971
 H        10.7314262250       -4.7222334310      -20.6217883778
 H         9.4095970262       -5.9910995986      -20.0184613118
 H         9.5177008084       -8.1322281892      -17.0706602724
 H         8.0020832271       -7.3404566007      -17.6673526675
 H         8.3455977390       -7.8990814240      -15.9852715957
 H        11.1180589463       -7.5338821262      -17.4279429068
 H        12.3903386474       -6.5358998169      -18.1087098452
 H        10.9487404379       -6.7555114094      -18.9591953506
 H        10.8381735794       -4.3036730336      -15.7796597087
 H        12.1049400017       -4.1919706123      -16.9902014710
 H        12.0947216176       -5.5621155329      -15.9573364501
 H         4.5409569767       -5.4208254476      -20.5193020661
 H         3.8515588017       -3.8141465268      -19.8920741224
 H         4.8701012522       -4.9384234929      -18.9352534212
 H         5.6834975590       -4.0055489710      -22.4999515799
 H         6.6541776026       -2.5856660811      -22.1024672052
 H         4.8111138375       -2.6302946431      -21.8868547214
 H         7.3198154925        2.4781215165      -17.2965234451
 H         8.0828316810        3.0446913053      -18.9702954757
 H         8.9162472248        3.3961408171      -17.4415142781
 H        11.2805935242        0.7935908811      -18.1515550148
 H        10.8209455669        2.5084334441      -18.0220132775
 H        10.6205097815        1.7770205606      -19.4928574055
 H         5.3130377769       -1.3001918833      -11.4730540312
 H         5.5079736165        0.0852839182      -12.3766478804
 H         6.7613273664       -0.2276840335      -11.1162414614
 H         8.0386319717       -3.1983547290      -13.5872584554
 H         7.3626580700       -3.3690704561      -12.0409357767
 H         8.7922055229       -2.3757297044      -12.2179099988
 H         0.1715228209       -5.8505489320      -14.4775715721
 H         1.8620815951       -6.2066745662      -14.2134796120
 H         1.5343282661       -5.4059724151      -15.6944511377
 H        -0.9464219835       -4.4061035595      -13.0719669379
 H        -0.7345768309       -3.4618690671      -14.5742652110
 H        -0.4084577409       -2.7259264660      -13.0317429305
 H         1.9358563793        0.3426627406      -10.4900480703
 H         1.9019917361        1.0057523090       -8.8566752131
 H         0.5765040708        1.2662963291       -9.9701725824
 H         1.7750919018       -0.8610972793       -7.0715385493
 H         0.2502084626       -1.6386157833       -6.9162017658
 H         0.3575962641        0.1400463933       -6.9475047123
 H        -4.4295300514        4.4881020070      -10.9406072768
 H        -5.1332463362        4.1798684852       -9.4385097683
 H        -6.1759466118        4.1475773159      -10.7793596388
 H        -6.2437150929        0.8806516580      -10.3687768767
 H        -6.2262574199        1.9928499967       -9.0172894009
 H        -4.9393124697        0.6630902665       -9.2862483504
 H        -7.1080860716       -2.3156361047      -13.2925369668
 H        -7.3711701704       -1.5440293157      -14.7819059729
 H        -8.4576708039       -2.8195515253      -14.4107443315
 H       -10.8479061561       -1.6497764025      -13.3339605349
 H       -10.3537551084       -0.6675762140      -14.7568957467
 H       -10.8032105048        0.1246612870      -13.3825648064
 H        -8.3054962003        1.3001145900       -7.0969911001
 H        -7.3984225447       -0.2161620139       -7.4807999213
 H        -7.7266398912        0.4186128066       -5.8519187080
 H        -9.1844908453       -1.7771076527       -5.1896496177
 H        -8.7682733546       -2.5606202052       -6.7338690664
 H       -10.4333626449       -2.3228141593       -6.2380804213
 H       -16.3919037265        2.0850272972       -2.9801564006
 H       -16.4262336176        1.0200593175       -4.3717876593
 H       -15.2389806016        2.3693699318       -4.1275259586
 H       -14.6212278779        1.8662165370       -1.3019643200
 H       -13.0524351276        1.8930641694       -2.0947230032
 H       -13.6097357154        0.3998846407       -1.2290582490
 H       -20.0387069621       -4.6096535017       -0.6684025137
 H       -18.3138975586       -4.7267328135       -1.0423691848
 H       -19.4255367192       -3.6413381881       -2.0132600434
 H       -21.1071100058       -2.3086503230        0.7699291770
 H       -21.0422809259       -2.2045577837       -1.0473695172
 H       -20.1300873062       -1.0341045363       -0.1082971410
 H       -16.4137049594       -3.4210471836        5.7850090590
 H       -15.4942056784       -1.8721806273        6.1895317386
 H       -14.7479431826       -3.4769170463        6.1119711235
 H       -13.4715021029       -1.6238856878        4.9056872961
 H       -14.6855485308       -0.3780737390        4.6944193001
 H       -13.8934702857       -0.9970709546        3.2379965757
 Na      -15.5197198840       -2.2097381191        0.4731301065
 Na        8.1415518496       -2.7956746757      -16.4389028325
