232

 C       -14.1797142324       -4.4609052146        4.4395893961
 C       -14.6240166788       -3.3434663448        3.5909015945
 O       -14.4367372935       -3.3219058014        2.3642963506
 C       -15.4032694512       -2.1762357058        4.2747925013
 C       -16.5506050003       -1.7345491038        3.3333523175
 O       -16.4282407534       -0.9984564810        2.3578367594
 C       -17.8623883759       -2.3924537923        3.7603254456
 C       -18.9574126190       -2.4362102839        2.7252646785
 C       -18.3796636243       -2.9638075548        1.3470396706
 O       -17.3227506627       -3.6098302763        1.3558967784
 C       -19.1472385011       -2.8380222258        0.0028010833
 C       -18.1697995313       -2.0056802254       -0.9102822667
 O       -17.7223984544       -0.9704652581       -0.4140281606
 C       -17.6158357594       -2.4127176495       -2.3670585031
 C       -16.7552851902       -1.4120930053       -3.0540024795
 C       -15.4886211457       -0.7121508286       -2.3964060624
 O       -14.8939151678       -1.2115837703       -1.3891147374
 C       -14.7599407648        0.5535276781       -3.0841735499
 C       -13.8471199590        0.0788014073       -4.3186874859
 O       -14.3727129396       -0.8144822851       -4.9616548176
 C       -12.5805907303        0.8112841607       -4.6497519867
 C       -11.8790869373        0.1289303705       -5.8052254817
 C       -10.3396577440        0.2802435772       -5.6931446529
 O        -9.8192319178        1.0541639512       -4.9093938761
 C        -9.3993691764       -0.6536893077       -6.6743306850
 C        -9.8810296104       -0.3329255386       -8.2217030098
 O       -10.4266328284        0.7377576392       -8.4344680092
 C        -9.8075386661       -1.3948758694       -9.3868305957
 C       -10.0254383974       -1.0537661435      -10.8195298453
 C        -8.8792872462       -1.4446012732      -11.7776154464
 O        -7.9233609438       -2.0022354115      -11.2908388979
 C        -8.9426575606       -0.9768685577      -13.2957386828
 C        -8.2469938581        0.4705811720      -13.4983886623
 O        -8.9367207776        1.4519423958      -13.6930988440
 C        -6.7061800702        0.5950073620      -13.1585015918
 C        -6.3289000267        2.0647405206      -12.6911030153
 C        -4.8940017337        2.0252710662      -12.0323312142
 O        -3.9584451877        1.7805238169      -12.7835645947
 C        -4.5802308870        2.3402020537      -10.4733960373
 C        -3.0184828620        2.3090985504      -10.1566092915
 O        -2.4588836161        3.2777017552       -9.6742535374
 C        -2.3344410083        0.9168344650      -10.4326564400
 C        -1.8012729874        0.2855825884       -9.1550488754
 C        -0.7891951224       -0.8365564271       -9.4881583020
 O        -1.3082133027       -1.7695538496      -10.0679560861
 C         0.6166815409       -0.7910634965       -9.0209353895
 C         1.4971406562       -1.9728042027       -9.4680411686
 O         2.3640110565       -2.3986214418       -8.7600086253
 C         1.4598777641       -2.5056919121      -10.9197289722
 C         0.8157929750       -3.9254852564      -11.0005607075
 C         1.5618140449       -4.5397599493      -12.2509469244
 O         2.5881509938       -5.2102963836      -12.1352919098
 C         1.0498103947       -4.1815627436      -13.6648286171
 C         1.8749379904       -3.1145411884      -14.2472266926
 O         1.4836712901       -1.9561103811      -14.5179482124
 C         3.3749176548       -3.3862146398      -14.6479035218
 C         4.2759113404       -2.4143541721      -13.8725500105
 C         5.7256020234       -2.2840971312      -14.2969010298
 O         6.0895035394       -2.7851321017      -15.3497387971
 C         6.8222758298       -1.4892679483      -13.3911132900
 C         7.4593528207       -0.2954104809      -14.2201181300
 O         6.7423618910        0.5467838858      -14.7308205712
 C         8.9871982178       -0.2081391142      -14.4146452983
 C         9.3860472044        0.8137247796      -15.4727285543
 C         9.2600376208        0.1868886213      -16.8520354625
 O         8.8821068609       -0.9472878670      -16.9475138023
 C         9.2749593439        1.0798793723      -18.1731845291
 C         8.6381911110        0.3409112858      -19.3103588233
 O         9.3071009893        0.1534304762      -20.3124864266
 C         7.1567752688       -0.0189770026      -19.2017850529
 C         6.6389557429       -1.1399484115      -20.1452235088
 C         6.5074289573       -2.4727163100      -19.4170395683
 O         6.4340773299       -2.5799680418      -18.1850675418
 C         6.0967151792       -3.7301883909      -20.3637265106
 C         7.2058080404       -4.8100378543      -20.0759126448
 O         7.2051756217       -5.7471619041      -19.2681538248
 C         8.5786293204       -4.5206788599      -20.6287798962
 C         9.7425619770       -5.3593130063      -20.0437598430
 C         9.9049931568       -4.7119641038      -18.6216630144
 O         9.6543569002       -3.5350430910      -18.3897786003
 C        10.5922619011       -5.5559789039      -17.4253143429
 C         9.2506259144       -5.8896279459      -16.5956198923
 O         8.7446881174       -5.1102029314      -15.7641178793
 C         8.5807602359       -7.2751742219      -16.7372403997
 C        11.4137420078       -6.7781124705      -17.9782462272
 C        11.3890650787       -4.6070576392      -16.5768709721
 C         4.6767277195       -4.2629443887      -19.9156469941
 C         6.1873041285       -3.4092186963      -21.8987824385
 C         8.5171669769        2.3928170655      -17.7617809486
 C        10.6259154723        1.5549985894      -18.6007935820
 C         6.1907880564       -0.6298132862      -12.2669252902
 C         7.8058356134       -2.5290093447      -12.8851142748
 C         1.2595912132       -5.4938593541      -14.5603187932
 C        -0.4046627595       -3.6877295049      -13.7275384886
 C         1.4451820807        0.4624456234       -9.5748666276
 C         0.7458008982       -0.6687978223       -7.3929923826
 C        -4.8413534903        3.9309670445      -10.3461357779
 C        -5.4859141715        1.4728810074       -9.5854263906
 C        -8.1070457088       -1.9469132601      -14.1896444390
 C       -10.4185901777       -0.8650031214      -13.7346467689
 C        -7.9647955637       -0.1215495367       -6.5380182757
 C        -9.4823598312       -2.1357907067       -6.4693010559
 C       -15.8175936456        1.5625631128       -3.5567075442
 C       -13.7527581556        1.0790498385       -2.0254737087
 C       -19.3985787478       -4.2134343023       -0.4883155521
 C       -20.4917983732       -2.0069874057       -0.0083460060
 C       -15.9528035599       -2.6239343891        5.6910079347
 C       -14.3689506094       -0.9922065159        4.4401849472
 H       -13.5644083916       -5.0133859001        3.8013731867
 H       -15.0609239183       -5.0375667561        4.8579419821
 H       -13.7099745947       -4.0403601494        5.3059863143
 H       -18.1840661105       -1.7320028687        4.5945161110
 H       -17.5837853630       -3.3252525941        4.1741601493
 H       -19.3510444437       -1.4207254149        2.4951096566
 H       -19.7947175197       -2.9962779175        3.2050529236
 H       -18.5381671243       -2.6943184622       -2.9534652468
 H       -17.0460388886       -3.3968163796       -2.3663595433
 H       -17.4118579347       -0.6419221542       -3.3707508620
 H       -16.3137449050       -1.6705655549       -4.0123693201
 H       -11.8786340784        0.9424247850       -3.8412250503
 H       -12.9056394787        1.8879726363       -4.7991683208
 H       -12.1478857737        0.6233734412       -6.6895037986
 H       -12.1569374915       -0.8731798342       -5.9686051443
 H       -10.7108001255       -1.9608654750       -9.0792680629
 H        -8.9359720491       -2.0413096261       -9.3785365130
 H       -10.3098692051        0.0242807858      -10.9709383606
 H       -10.9360091825       -1.4040549300      -11.2517821976
 H        -6.0545458425        0.2742880087      -13.9789827238
 H        -6.4875226914       -0.1174475402      -12.3256102698
 H        -7.2054454644        2.3505111241      -12.0743013064
 H        -6.3233262167        2.6251507183      -13.6402840048
 H        -1.5644268035        1.1639559855      -11.2411226464
 H        -3.0212607062        0.2729425276      -10.9337231731
 H        -2.6278598396       -0.1978122172       -8.5929792145
 H        -1.3035803831        1.0141019242       -8.6103713455
 H         2.4441470783       -2.3990267171      -11.4306299214
 H         0.8144045902       -1.8781584366      -11.5429452078
 H        -0.2664714068       -3.7999377096      -11.0776412407
 H         1.1689514168       -4.6036321772      -10.2073410491
 H         3.3416362907       -3.0547947025      -15.6909517853
 H         3.6786507648       -4.3461192997      -14.4923930688
 H         4.1914626123       -2.5621965362      -12.7567125175
 H         3.7937896274       -1.3992712689      -13.8849244969
 H         9.2567527065       -1.2535476951      -14.6575253505
 H         9.4054105674       -0.1098600669      -13.4251040291
 H        10.3798781554        1.0929329809      -15.1970379955
 H         8.7112456083        1.6393864386      -15.5291039647
 H         6.6655172009        0.9659409091      -19.4534203460
 H         6.9120082880       -0.2441722774      -18.1792970868
 H         7.2905593348       -1.2122549894      -21.0322611031
 H         5.5672561948       -0.8398967355      -20.3575735201
 H         8.8710699764       -3.4533342163      -20.4599152000
 H         8.5077262654       -4.5503343624      -21.6909146409
 H        10.7258351869       -5.1362381567      -20.5207070327
 H         9.4069333966       -6.3929843561      -19.9750355307
 H         9.3204559911       -8.1286821729      -16.4744152649
 H         8.3266691479       -7.3668339531      -17.7780041927
 H         7.7427320007       -7.4225152499      -16.0854218107
 H        12.2774059389       -6.9159008188      -17.3792625890
 H        11.5004703618       -6.5690634813      -19.0515024673
 H        10.8326643204       -7.7435436918      -17.8872058220
 H        10.6562516427       -3.8161219167      -16.3878152005
 H        12.3576212454       -4.2451312019      -17.0390620203
 H        11.7283208844       -5.1231763585      -15.6653318691
 H         4.5838994495       -5.2697612971      -20.3201162530
 H         3.8802153185       -3.5161698500      -20.0956787706
 H         4.7389565578       -4.3761603328      -18.8601430078
 H         5.9631158912       -4.3109862639      -22.5004365513
 H         7.1691127650       -3.1660239405      -22.2197991105
 H         5.3338727213       -2.7459061688      -22.0967796916
 H         7.4262740872        2.1977273559      -17.5094025281
 H         8.4581150781        2.9474825654      -18.6346881324
 H         8.9988510093        2.8452107009      -16.9007959170
 H        11.1167460123        1.7812352926      -17.6257417549
 H        10.6737250767        2.3538697644      -19.2651377467
 H        11.2669943920        0.7155580813      -18.9339542132
 H         5.7104049181       -1.3150944429      -11.5752073556
 H         5.3420295522       -0.0317295046      -12.6784867352
 H         6.9943146559       -0.0415053649      -11.8742489753
 H         8.0573388725       -3.1778429300      -13.7302329506
 H         7.2915648178       -3.2168299899      -12.1812212225
 H         8.7480389397       -2.1035344806      -12.4932704125
 H         0.8035388951       -6.3729383528      -14.0616963446
 H         2.2770266763       -5.4965869721      -14.7986958283
 H         0.8837936575       -5.2704017990      -15.5384062217
 H        -1.2060816128       -4.2796800984      -13.3100145158
 H        -0.6112163668       -3.4488125157      -14.7754637091
 H        -0.5249733535       -2.7329461893      -13.2556538369
 H         2.3560259845        0.1284108461      -10.0760323143
 H         1.5719776880        1.1859375537       -8.7905799520
 H         0.9470203623        0.9792143995      -10.4317864907
 H         1.8142497000       -0.4496539559       -7.3500555278
 H         0.6030648170       -1.6131252346       -6.8714288390
 H         0.1108825097        0.1779502654       -6.9534600297
 H        -4.3277743113        4.5661644363      -11.1291002242
 H        -4.4939699336        4.2812494316       -9.3986840592
 H        -5.9669426837        4.1109809345      -10.3178303655
 H        -6.5114786101        1.8615918433       -9.6108153654
 H        -5.1046616196        1.5763134490       -8.5638380965
 H        -5.4000020814        0.4241960845       -9.8537344580
 H        -7.1418960410       -2.0414666685      -13.7635563748
 H        -7.9119296975       -1.6060754376      -15.1882103689
 H        -8.5918796681       -2.9535226421      -14.3088706614
 H       -11.0396220055       -1.7630953641      -13.5261289863
 H       -10.6308015120       -0.5388605605      -14.7329820852
 H       -10.8847435131       -0.1681019180      -13.0810376629
 H        -7.9598031827        0.9451608100       -6.7258293818
 H        -7.2811175604       -0.4734372395       -7.3516536941
 H        -7.4477590437       -0.2837134565       -5.5991823700
 H        -9.1853162819       -2.4075314466       -5.4803464981
 H        -8.6663134629       -2.5416173178       -7.1589605249
 H       -10.3844859256       -2.6198279730       -6.8606496629
 H       -16.5698318462        1.7334718602       -2.8104872521
 H       -16.4205862271        1.2823116090       -4.3261444807
 H       -15.3351753005        2.5708560028       -3.7642504045
 H       -14.1180750718        1.1046206362       -1.0119134860
 H       -13.5373447557        2.1214218482       -2.2300371317
 H       -12.8915291995        0.4296716642       -2.0560544670
 H       -19.8692935699       -4.6891587595        0.2674031160
 H       -18.4988723154       -4.8079978338       -0.7260669563
 H       -20.0904554450       -4.2826501048       -1.2833130502
 H       -21.2533987500       -2.4717459896        0.5391602229
 H       -20.8815959110       -2.0013358143       -1.0324967542
 H       -20.3036285492       -1.0462131166        0.3890691738
 H       -16.2067097875       -3.7254400587        5.5392743827
 H       -16.7374923378       -1.9584824798        6.0122409750
 H       -15.1530869623       -2.4178148757        6.4199209401
 H       -13.4876532491       -1.3754057056        4.8905308819
 H       -14.7589449274       -0.2787046108        5.1040312769
 H       -14.1287065658       -0.4628864849        3.4898450961
 Na      -15.4687915893       -2.1782608737        0.6285425132
 Na        8.0471911627       -3.0268813954      -16.5052274243
