232

 C       -14.0582189842       -4.3445901179        4.5648381241
 C       -14.5807096627       -3.2662992019        3.5723504213
 O       -14.3879368538       -3.3240800256        2.4109559736
 C       -15.3485449590       -2.0463701249        4.3005112960
 C       -16.5917414667       -1.6874195759        3.4114958054
 O       -16.5305360801       -0.9766292348        2.4457922192
 C       -17.9875327727       -2.4716097036        3.7770513091
 C       -19.0233573299       -2.3960526348        2.5897926799
 C       -18.4548541987       -2.9611549954        1.3500587287
 O       -17.3882044215       -3.5761130542        1.4796184387
 C       -19.1692213917       -2.9204633672       -0.0741751233
 C       -18.0861876593       -1.9331585077       -0.9737371222
 O       -17.7166601664       -0.9259541183       -0.4785725216
 C       -17.5971598119       -2.4056579175       -2.3460682900
 C       -16.6876535021       -1.4277677656       -3.1072414454
 C       -15.4365506700       -0.8108558794       -2.4362214465
 O       -15.0783043854       -1.1274495712       -1.3411773435
 C       -14.7535980216        0.4325610049       -3.0470897567
 C       -13.9564426816        0.0908362107       -4.3875479366
 O       -14.3317172966       -0.8248189009       -5.1081282780
 C       -12.6065419736        0.8122999204       -4.7611462049
 C       -11.7934510973        0.0524585259       -5.8228358750
 C       -10.2658600222        0.1680466704       -5.7247085140
 O        -9.7185869135        0.9565990172       -4.9836993366
 C        -9.4391664422       -0.6263912361       -6.8115682822
 C       -10.0340037163       -0.2249864566       -8.1768999796
 O       -10.3600782649        0.8912489176       -8.4525028923
 C        -9.8500766862       -1.4459342236       -9.2379533110
 C       -10.1167828345       -1.0403131260      -10.7007852113
 C        -8.9300352448       -1.3831283169      -11.7254364570
 O        -7.9364550531       -2.0253544780      -11.3928035214
 C        -8.9704420578       -0.9279918610      -13.2751553994
 C        -8.3198850794        0.4570241498      -13.3293676273
 O        -8.9417495656        1.4791678231      -13.6157918773
 C        -6.8463413658        0.4296063269      -13.0393274832
 C        -6.2997683119        1.8273001551      -12.5460101378
 C        -4.8572715433        2.0189312666      -12.0583073494
 O        -3.9351587364        1.7809327564      -12.8009792313
 C        -4.5868482852        2.4875283579      -10.5574308844
 C        -3.0505042274        2.3064116353      -10.1684302997
 O        -2.3969762072        3.1502080142       -9.5306337480
 C        -2.3680667182        0.9583721694      -10.3814103922
 C        -1.7770374417        0.3706123599       -9.1167224117
 C        -0.7911622348       -0.8550952051       -9.4973188971
 O        -1.1671749853       -1.7922427947      -10.1821867337
 C         0.7050723884       -0.7488145819       -9.0661964363
 C         1.5621318086       -1.9039570856       -9.4072246187
 O         2.4713228038       -2.3350149580       -8.6899795335
 C         1.4310859519       -2.3917603493      -10.8948342163
 C         0.8319963165       -3.7438855818      -11.0769954319
 C         1.4816565780       -4.5017690852      -12.2985604885
 O         2.4560982584       -5.2089756443      -12.1493549593
 C         0.9478946234       -4.1846276187      -13.7790522236
 C         1.8082807340       -2.9987056253      -14.3474433622
 O         1.3711239404       -1.8610681844      -14.2099423511
 C         3.3368770853       -3.3161032053      -14.6167274487
 C         4.2568216137       -2.3636863515      -13.8593580093
 C         5.6918670374       -2.2052798730      -14.3182568799
 O         6.2029363956       -2.9334948197      -15.1727882398
 C         6.7862438214       -1.4222113882      -13.4646468359
 C         7.4575525440       -0.2761140852      -14.3727099748
 O         6.7973722912        0.6160819345      -14.8080864101
 C         9.1307635301       -0.2719190179      -14.4473932237
 C         9.5020220959        0.7948266210      -15.4714293348
 C         9.1422903409        0.2082265020      -16.7832207512
 O         8.9385417548       -1.0041941523      -16.9958344489
 C         9.3168245478        1.1037281470      -18.0367582307
 C         8.6365861095        0.3536899253      -19.3392428929
 O         9.3273785932        0.0708143814      -20.2738457421
 C         7.1014979112       -0.0311779873      -19.2690625197
 C         6.6464041334       -1.0799296657      -20.2559361449
 C         6.5664665268       -2.4654180638      -19.6132230741
 O         6.6360908697       -2.5113706745      -18.3993991253
 C         6.2646977896       -3.7901157958      -20.3437573765
 C         7.3133140337       -4.8685109084      -20.0615249064
 O         7.0763534069       -5.7802082332      -19.2909357902
 C         8.6466584068       -4.5061758128      -20.7658333420
 C         9.6679199565       -5.3466270734      -20.0328464027
 C         9.9489984510       -4.7218458336      -18.6239704066
 O         9.5017245316       -3.6172645036      -18.4571703207
 C        10.5329466871       -5.5359868940      -17.3941437463
 C         9.2433730730       -5.9397272510      -16.5255319810
 O         8.8423096283       -5.1633911634      -15.7195587736
 C         8.6285598514       -7.2653476679      -16.6913358687
 C        11.3551945152       -6.7562683999      -17.8216682657
 C        11.5441549758       -4.5826427504      -16.5943455666
 C         4.8144554843       -4.1403378275      -19.8636183385
 C         6.1848250158       -3.5927695880      -21.8881078198
 C         8.4899405770        2.4963024867      -17.8814194390
 C        10.7951739261        1.4342197723      -18.4623192475
 C         6.0893916884       -0.7709681247      -12.2403404400
 C         7.8695610310       -2.3980416955      -13.0767131435
 C         1.1541631879       -5.5862741337      -14.4343183778
 C        -0.5970552350       -3.8428639695      -13.7152156675
 C         1.4292219773        0.4984343531       -9.6577324042
 C         0.6220115052       -0.6774633998       -7.5255336299
 C        -4.9099248376        4.0132828393      -10.2747265542
 C        -5.3075670956        1.5339459796       -9.6241027543
 C        -8.1534834641       -1.9446356910      -14.1758591027
 C       -10.4080448759       -0.8036710267      -13.8591642310
 C        -7.9499957653       -0.2425224404       -6.6550082211
 C        -9.6008631010       -2.1772309480       -6.4824921034
 C       -15.7809934731        1.4810384520       -3.4221496162
 C       -13.8026033384        1.0816972694       -1.9049818169
 C       -19.4809205131       -4.3041823632       -0.5214862758
 C       -20.4940723362       -2.0314979911       -0.0970326709
 C       -15.8264008110       -2.5207627569        5.7583116925
 C       -14.3441428359       -0.8834441321        4.5377014366
 H       -13.3256315374       -4.8850829564        3.9479453431
 H       -14.9345418277       -4.9741574660        4.8121938711
 H       -13.7650915958       -3.9664278948        5.5085185956
 H       -18.4031395058       -2.2578944926        4.7992604119
 H       -17.5687961104       -3.4401799446        3.7791314073
 H       -19.4503131904       -1.4220345342        2.4044472111
 H       -19.8906241503       -3.0842101155        2.8290418900
 H       -18.4396138153       -2.8637901699       -2.8895612772
 H       -16.9004592091       -3.2799937617       -2.2181875379
 H       -17.2933224817       -0.6380727532       -3.5059661091
 H       -16.2759706438       -1.8008358544       -4.0158682102
 H       -11.9698277865        0.9488205464       -3.8628139501
 H       -12.8040560011        1.8367747497       -5.0407643484
 H       -12.0906283209        0.4017019092       -6.8002157077
 H       -12.0492094280       -0.9914425205       -5.8066600341
 H       -10.5083691700       -2.2316318616       -8.9537515379
 H        -8.7745705000       -1.8132566519       -9.2204093034
 H       -10.5859520305       -0.0162744324      -10.7426353602
 H       -10.9307620894       -1.5012842846      -11.2538430904
 H        -6.3705622593        0.1836028452      -14.0014475836
 H        -6.5979414918       -0.3121900117      -12.3675368570
 H        -7.1172657561        2.2185782240      -11.8952351131
 H        -6.3171831211        2.3919817290      -13.4670069660
 H        -1.6271687247        1.3068656181      -11.1005759299
 H        -3.0000242768        0.2493777290      -10.9960285905
 H        -2.5105566027        0.0739364433       -8.4159988087
 H        -1.0524086668        1.1577096219       -8.8102497359
 H         2.4595861724       -2.3229387616      -11.3376867381
 H         0.9128514802       -1.6943993785      -11.5781069191
 H        -0.2287154534       -3.6952756128      -11.2397196100
 H         1.1010349149       -4.3324781695      -10.2121720741
 H         3.4992169340       -3.2783166382      -15.6997847446
 H         3.4252821435       -4.3402511144      -14.1598983852
 H         4.2251513360       -2.5479233848      -12.8124494756
 H         3.7974534412       -1.4011346839      -13.8293842787
 H         9.5948805587       -1.2503752283      -14.5630803483
 H         9.3267215249        0.0037508496      -13.3745752739
 H        10.5594690612        1.0458475872      -15.3282120595
 H         8.8838901854        1.6426705195      -15.4509023863
 H         6.5143147414        0.8961930137      -19.4956709203
 H         6.8882917045       -0.3043088456      -18.2480828284
 H         7.4173362571       -1.1324751595      -20.9889815766
 H         5.7068317134       -0.7109014175      -20.6439795915
 H         8.9085803039       -3.4605732927      -20.8726874115
 H         8.5795950741       -4.8053524544      -21.7975262901
 H        10.6494752791       -5.4249336256      -20.5865402128
 H         9.1255561712       -6.2966656956      -19.8577451415
 H         9.1725952964       -8.0637141017      -16.2596430755
 H         8.6538673388       -7.3675820074      -17.8111917704
 H         7.5775749516       -7.2772781886      -16.2941210639
 H        12.0843292050       -6.7794150116      -17.1176365994
 H        11.6376345794       -6.7198218389      -18.9090853185
 H        10.8750061645       -7.6355364692      -17.5954815795
 H        11.2336071895       -3.5040897947      -16.5400416738
 H        12.5614258078       -4.7603072917      -17.0320631631
 H        11.6736953096       -5.0619868308      -15.5876692712
 H         4.5963727947       -5.0832190867      -20.2264205448
 H         4.2163344022       -3.3476721931      -20.3192215608
 H         4.6182850127       -4.0330683572      -18.7787520254
 H         6.1538052473       -4.5306571715      -22.3619513230
 H         7.1358274049       -3.2435635587      -22.2887237212
 H         5.2352627495       -3.0962204777      -22.1363329208
 H         7.5452668171        2.2241522077      -17.3559656124
 H         8.0868772237        2.8293937248      -18.8480794620
 H         9.0222502443        3.1642389714      -17.2113543418
 H        11.3031178881        2.2166341316      -17.9143148049
 H        10.8289110524        1.6240663470      -19.5131067601
 H        11.3534910863        0.5629397534      -18.1936709411
 H         5.6267265305       -1.5085332126      -11.6668684698
 H         5.3766015382       -0.0741633261      -12.5438406594
 H         6.9454700516       -0.3093919372      -11.7286571977
 H         8.5088794292       -2.6427158526      -13.9743495635
 H         7.4597235532       -3.3618568566      -12.7016420198
 H         8.4825751532       -1.9397930075      -12.4001665460
 H         0.7122608532       -6.2832563920      -13.7284967677
 H         2.1984266328       -5.6387859735      -14.6319340361
 H         0.7058062528       -5.6350394778      -15.3856383160
 H        -1.3704042740       -4.4394503787      -13.1418476223
 H        -0.9001473770       -3.7879097315      -14.7762966330
 H        -0.7748200781       -2.8246980365      -13.3906570289
 H         2.4637747635        0.3167647764       -9.8716054993
 H         1.1614912504        1.4003724276       -9.1366447637
 H         1.0174968979        0.5789903265      -10.6805279763
 H         1.6586900163       -0.7432900302       -7.1328675467
 H         0.0492426479       -1.5105789081       -7.1511142364
 H         0.1179196480        0.2199838662       -7.2760213143
 H        -4.4681606391        4.7591237233      -10.9298167670
 H        -4.5424736292        4.2281684550       -9.2352063045
 H        -6.0097498863        4.1325723639      -10.1951088483
 H        -6.2753404930        1.9497729456       -9.3018846562
 H        -4.6331534523        1.2840244031       -8.7022323237
 H        -5.4173984535        0.5714365540      -10.1135854414
 H        -7.1076975909       -1.7014416411      -13.9808967219
 H        -8.2493066278       -1.7849208309      -15.2074954772
 H        -8.3035560617       -3.0102592261      -13.9953192418
 H       -10.9785732909       -1.6675148778      -13.5774849813
 H       -10.5053788624       -0.7324598382      -14.9241620918
 H       -11.0082338275       -0.0185864404      -13.3513934598
 H        -7.6577803577        0.7911782783       -7.0045004320
 H        -7.3009334857       -0.8398396439       -7.2540233792
 H        -7.6271465361       -0.3693946498       -5.6414388443
 H        -9.1475618456       -2.3492483302       -5.4915828798
 H        -9.0604578365       -2.8426795294       -7.2137311279
 H       -10.6318649275       -2.4905871465       -6.5815321403
 H       -16.5299695001        1.5645856457       -2.7092941744
 H       -16.4154262182        1.2592902829       -4.2720584315
 H       -15.2545348227        2.3944181493       -3.6333859276
 H       -14.4017572874        1.4268879710       -1.1356797575
 H       -13.3456924207        2.0354977899       -2.2616319282
 H       -13.1303433206        0.3478722478       -1.4657775588
 H       -20.1325718468       -4.7553509359        0.2220196582
 H       -18.6470820703       -4.9539156120       -0.6663357949
 H       -20.1080733055       -4.3436431976       -1.4073820840
 H       -21.1853539385       -2.4056375994        0.6955500659
 H       -21.0501062213       -2.2091202725       -0.9889991874
 H       -20.3243410791       -1.0425643463        0.1413566979
 H       -16.4442176174       -3.3900237563        5.6402677386
 H       -16.2815553971       -1.6712390923        6.2881932658
 H       -14.8495598819       -2.6251628049        6.3340502534
 H       -13.5923683022       -1.3305308537        5.1576135843
 H       -14.7638542168       -0.0375293915        5.0806857996
 H       -13.8888338210       -0.5337114439        3.6562666702
 Na      -15.4624765414       -2.1469898739        0.6879970222
 Na        8.0009859426       -3.1504585382      -16.5867450770
