232

 C       -13.8458529514       -4.2920052587        4.5531169852
 C       -14.5733051681       -3.1940625997        3.7139694801
 O       -14.3705043908       -3.2294843403        2.4873980079
 C       -15.3364361457       -2.0130277850        4.4202597472
 C       -16.7126918396       -1.7837559882        3.5023425620
 O       -16.5954727572       -0.9525491534        2.6279933704
 C       -18.0927885448       -2.4700305994        3.7017465175
 C       -19.0589905881       -2.2881642042        2.5781535183
 C       -18.4929722363       -2.9949086976        1.3340049882
 O       -17.4204582410       -3.5650358418        1.3222521899
 C       -19.1244260594       -2.8509466788       -0.1402139642
 C       -18.0189983074       -1.9614572630       -0.9954761679
 O       -17.7445234675       -0.8797121311       -0.5267004102
 C       -17.4440450548       -2.5313963504       -2.2755327833
 C       -16.6101994800       -1.4447038681       -3.1420556478
 C       -15.4593601487       -0.7988643844       -2.3242509688
 O       -15.2397765554       -1.2636265134       -1.2471194675
 C       -14.7347048823        0.4126700845       -3.0285940364
 C       -13.9220081836       -0.0421257367       -4.4041435826
 O       -14.3645092715       -0.8134845598       -5.2076845462
 C       -12.6092187720        0.7427781645       -4.7999161875
 C       -11.7706674175       -0.0114411588       -5.8255235956
 C       -10.2522795518        0.1935128893       -5.7952928587
 O        -9.6693040028        0.8311969672       -4.9647593697
 C        -9.5053390716       -0.6303134578       -6.8470245698
 C        -9.8880188073       -0.2580831950       -8.2851498076
 O       -10.3060135832        0.8407520403       -8.5466609274
 C        -9.7848392019       -1.3527308584       -9.2823888943
 C       -10.1409782963       -0.9936503734      -10.8154533268
 C        -9.0654210489       -1.4376688790      -11.7810095223
 O        -8.0513198705       -1.9681329292      -11.3538050267
 C        -9.0630428923       -0.9132926658      -13.1740723625
 C        -8.2937606060        0.4738839085      -13.1902987010
 O        -8.8933053695        1.4593541159      -13.4715198958
 C        -6.7537447777        0.4675712692      -12.8581575425
 C        -6.3388619432        1.8574267413      -12.3387365367
 C        -4.7994347595        2.0350800950      -12.1131692119
 O        -3.8528239547        1.7527258486      -12.8130888619
 C        -4.5137020068        2.5505844904      -10.5501313019
 C        -2.9874760801        2.2990022179      -10.1695745527
 O        -2.4597855656        3.0820798374       -9.4447214427
 C        -2.3564326391        0.8940306822      -10.4848251319
 C        -1.6364858533        0.3818899155       -9.2311491829
 C        -0.7665920790       -0.7714723566       -9.5893849081
 O        -1.1275665697       -1.7272232110      -10.2338081000
 C         0.6949068692       -0.6327104984       -9.0306433160
 C         1.7044244924       -1.8658430836       -9.4694294856
 O         2.4874174487       -2.3585641964       -8.6960645803
 C         1.5946182327       -2.3097889840      -10.9780326504
 C         0.8915064084       -3.6640332096      -11.0810797251
 C         1.3810398845       -4.4015823598      -12.2874914195
 O         2.3063066303       -5.1460340668      -12.1742153865
 C         0.8487763418       -4.2591976341      -13.8139775527
 C         1.8103695294       -2.9668832597      -14.1183612467
 O         1.3626761168       -1.8869141953      -14.0229431859
 C         3.2928579327       -3.1703104943      -14.5694620089
 C         4.2462632888       -2.1674950575      -13.8665366845
 C         5.7674016849       -2.3612494072      -14.3303606707
 O         6.0930171886       -3.1518425000      -15.1874481122
 C         6.8615493970       -1.4046900545      -13.5081815050
 C         7.4994904648       -0.1837584914      -14.3166464007
 O         6.9166890053        0.6667690679      -14.9873897934
 C         8.9614800667       -0.1674970034      -14.3145416170
 C         9.5628103908        0.7603401471      -15.4632054475
 C         9.1966275891        0.2437181109      -16.9331203449
 O         8.9889025721       -0.9486134669      -17.0578235884
 C         9.2576283379        1.1060033938      -18.1615115042
 C         8.6075681696        0.3313105215      -19.3480377061
 O         9.2680495248       -0.0680479411      -20.2756018955
 C         7.1114209438        0.0963674242      -19.3664996799
 C         6.8063232105       -0.9856230493      -20.4077337739
 C         6.6525595570       -2.3605087329      -19.6802474831
 O         6.8835739059       -2.4913638107      -18.5102975984
 C         6.1575683137       -3.6630356802      -20.4772711304
 C         7.3435369429       -4.7760954397      -20.0410679118
 O         7.0353159858       -5.7372769426      -19.4116673878
 C         8.7110479993       -4.8487158626      -20.7708976458
 C         9.8684973226       -5.4658547778      -19.9049764527
 C         9.9174526468       -4.7337177075      -18.5771449840
 O         9.3894044859       -3.6542830478      -18.4172333296
 C        10.5630418141       -5.5837061470      -17.3497555196
 C         9.3512857451       -5.9202493873      -16.4518438614
 O         8.9310801447       -5.1127982048      -15.6534412280
 C         8.6575960773       -7.3068448969      -16.7145773190
 C        11.3567113823       -6.8730383620      -17.8049399633
 C        11.4920634313       -4.5212928431      -16.6658409228
 C         4.8486675205       -4.1439901323      -19.8046327476
 C         6.1030839913       -3.6688726381      -22.0285228442
 C         8.4907906519        2.5114711825      -18.0029753234
 C        10.8169041569        1.3167693970      -18.2408272758
 C         6.0728571207       -0.8246016800      -12.1685049445
 C         7.8880629472       -2.4533407117      -13.0705941915
 C         0.9595836784       -5.6731379305      -14.4990811095
 C        -0.6618148522       -3.9993331486      -13.7629752513
 C         1.2858044847        0.6259497573       -9.7127644972
 C         0.5725503042       -0.5880437332       -7.3840420043
 C        -5.0617581351        3.9563636691      -10.2973328061
 C        -5.2341811722        1.5921574531       -9.5717301229
 C        -8.3204426586       -1.9598303551      -14.0040573048
 C       -10.4828012774       -0.7968795418      -13.9020981053
 C        -8.0189460042       -0.3829981224       -6.8083524667
 C        -9.7244222050       -2.1615617802       -6.4062010918
 C       -15.7796211517        1.5293035635       -3.3762943690
 C       -13.8613520402        1.0414272280       -1.9270334145
 C       -19.4188745963       -4.2956241329       -0.6516944194
 C       -20.3993447307       -2.0472126173       -0.0788913764
 C       -15.7749870840       -2.3552826988        5.8620529661
 C       -14.4199056734       -0.8078014374        4.4670187204
 H       -13.1437458246       -4.8054947252        3.8599783583
 H       -14.6249404555       -4.9116637157        4.8588915735
 H       -13.4914162697       -3.8891693422        5.5260857497
 H       -18.4416493021       -1.9702242018        4.5886893169
 H       -17.8009987158       -3.5348315614        3.9904718352
 H       -19.1439018864       -1.2114399214        2.3881127987
 H       -20.0384869041       -2.6715118099        2.8294717569
 H       -18.3476071624       -2.8711818515       -2.7998290801
 H       -16.8531567835       -3.4204969920       -2.2232695423
 H       -17.3458934018       -0.6862753650       -3.5048909379
 H       -16.1712472123       -1.7738919835       -4.0986229346
 H       -12.0229207822        0.9897808809       -3.8826436994
 H       -12.8817393896        1.6943480489       -5.1846507584
 H       -12.2757587013        0.0890466389       -6.8441098100
 H       -11.8712314332       -1.1122067434       -5.5573362788
 H       -10.4210563055       -2.1767747661       -8.9025207975
 H        -8.7213231889       -1.6915765616       -9.2254370000
 H       -10.3328503640        0.0527812154      -10.9560580729
 H       -11.1209832217       -1.2478388963      -11.3220499168
 H        -6.1877207004        0.1678496281      -13.7174526697
 H        -6.4934417464       -0.1347486578      -12.0105869622
 H        -6.8529157889        1.8996966566      -11.3908162564
 H        -6.7347325176        2.6865372246      -12.9420004482
 H        -1.9271841226        0.9807221763      -11.4397762682
 H        -3.2240223307        0.1899736723      -10.5972850077
 H        -2.4141715193       -0.1274706824       -8.6750772379
 H        -1.0091356095        1.1835676530       -8.7294565302
 H         2.5977715938       -2.3208613695      -11.3964743911
 H         1.1336563524       -1.5847222385      -11.6847598064
 H        -0.1585125864       -3.6490590954      -11.3586392698
 H         1.1649378498       -4.2248395058      -10.2046356605
 H         3.2632316712       -3.0348797119      -15.6609619107
 H         3.5930105014       -4.2332627964      -14.2066894640
 H         4.0899155490       -2.3129558949      -12.8421267424
 H         3.9224712027       -1.1669450355      -13.9404898943
 H         9.2809573091       -1.2065173662      -14.4435486582
 H         9.3862595456        0.0989335863      -13.3129713365
 H        10.6089868943        0.5247037720      -15.2229399242
 H         9.3674309370        1.8581531539      -15.4226293991
 H         6.5623442207        0.9979905587      -19.5256219011
 H         6.8518769404       -0.2816320660      -18.3394144951
 H         7.6077751426       -1.0342876229      -21.1339529969
 H         5.8981109143       -0.7125284776      -20.8573595543
 H         9.1172023688       -3.9163760364      -21.0941669603
 H         8.6647817613       -5.3377527169      -21.7905901862
 H        10.8028099582       -5.1666220046      -20.3794434975
 H         9.7893985205       -6.5715291570      -19.6870710363
 H         9.0480971792       -8.0143449365      -16.0179168455
 H         8.7045715669       -7.7659299276      -17.7271255076
 H         7.6099258875       -7.0816250715      -16.4025039275
 H        11.8554649900       -7.0987327797      -16.8176993550
 H        11.9246256843       -6.7023017982      -18.6496830283
 H        10.6855411246       -7.6835640728      -17.8221013843
 H        11.1894993045       -3.4578460570      -16.7481261882
 H        12.4715335266       -4.7163366675      -17.0394613201
 H        11.5595148368       -4.8714833948      -15.6168235851
 H         4.6166238820       -5.1450456941      -20.1972970713
 H         4.0853223164       -3.4419568135      -20.0241258260
 H         4.9385927072       -4.0822733483      -18.7128956637
 H         6.2465388321       -4.6828272361      -22.3655274866
 H         7.0614735499       -3.2996833363      -22.3777070359
 H         5.2086249843       -3.2885545839      -22.4437155810
 H         7.6905828262        2.3848077875      -17.3077672637
 H         7.9106280594        2.8970275122      -18.9087088388
 H         9.2343367049        3.0888075691      -17.4507102835
 H        11.2748356200        2.2614248427      -18.0464044422
 H        11.1490461861        0.9847112821      -19.2766804843
 H        11.1455449191        0.6388124815      -17.4958553538
 H         5.6741928985       -1.6489817594      -11.6011934507
 H         5.3837617969       -0.0696125743      -12.4022793455
 H         6.9038627890       -0.4341828870      -11.6269313977
 H         8.6107607106       -2.7452548668      -13.8071578314
 H         7.3685501295       -3.2921586536      -12.6773289894
 H         8.4511484828       -1.9694969513      -12.2465587610
 H         0.3389553299       -6.2845913797      -13.9300307174
 H         2.0143021797       -5.9437530915      -14.5931632378
 H         0.5358811043       -5.5864992152      -15.5016241728
 H        -1.2385103361       -4.6222296060      -13.0397250454
 H        -1.1408832099       -4.1295037797      -14.7502184983
 H        -0.9175238775       -2.9426131891      -13.4367079423
 H         2.3161757902        0.7734742386       -9.3920078009
 H         0.6398823015        1.5153608567       -9.6932706662
 H         1.4015266487        0.3527776695      -10.7289216751
 H         1.4099773536       -0.9787945752       -6.8537403759
 H        -0.2925386940       -1.2056136183       -7.1874295113
 H         0.2691887823        0.3604521146       -7.1072956553
 H        -4.6273446394        4.6911547793      -10.9333376647
 H        -4.8696008530        4.2990080963       -9.2405804663
 H        -6.1144504975        3.9365106174      -10.4337052836
 H        -6.1988968475        2.0731140460       -9.3306564688
 H        -4.6768273427        1.2403260919       -8.6949865230
 H        -5.4498430263        0.6583921121      -10.1689408258
 H        -7.2388155727       -1.7272784484      -13.9385903493
 H        -8.5499546866       -1.8823817706      -15.0916584543
 H        -8.4541589887       -2.9477358813      -13.6822537485
 H       -11.1124948518       -1.6566740414      -13.8153195966
 H       -10.3083263050       -0.7577406096      -14.9974769331
 H       -11.1582684286        0.0230108427      -13.5965552773
 H        -7.6942091327        0.5099032888       -7.3215925889
 H        -7.4710232046       -1.1294660132       -7.3358164076
 H        -7.5973207219       -0.3795190841       -5.7936808090
 H        -9.2540843788       -2.3361993363       -5.4054067328
 H        -9.3180354993       -2.8472950578       -7.0790391054
 H       -10.8001167450       -2.3461231226       -6.4346746729
 H       -16.5717919767        1.5051240229       -2.6109200193
 H       -16.4547309699        1.1548021668       -4.2016117357
 H       -15.3689801297        2.4205638209       -3.7106334865
 H       -14.5776805615        1.6429865181       -1.3192181795
 H       -13.1369244789        1.7776389530       -2.2022989213
 H       -13.5469658586        0.2708505185       -1.2325943799
 H       -20.3114133724       -4.7972276201       -0.0856378240
 H       -18.5638643664       -4.9221981444       -0.5575066688
 H       -19.7492748113       -4.3699349312       -1.7038577243
 H       -20.9352016167       -2.5184064770        0.7797784687
 H       -21.0347053038       -2.3376149497       -0.8740227244
 H       -20.4180677935       -0.9436379568        0.1410551035
 H       -16.6527520557       -2.9703028471        5.8567834614
 H       -16.0147874961       -1.3677526796        6.3626390958
 H       -14.9082417297       -2.6537684211        6.3870888802
 H       -13.5901974611       -0.9954009099        5.1600201477
 H       -14.8941489303        0.1513270164        4.7384869187
 H       -13.9998611759       -0.7347940437        3.4972332912
 Na      -15.5262599603       -2.1065477264        0.7507859126
 Na        7.9945318024       -3.2205884257      -16.6690635578
