232

 C       -13.6949225890       -3.6142484705        4.7876862369
 C       -14.5993139869       -2.8609565770        3.8437591978
 O       -14.5384077069       -3.0314130186        2.5873607450
 C       -15.5455727934       -1.7631549721        4.4579813534
 C       -16.7449827677       -1.5299467382        3.5083684451
 O       -16.7126761386       -0.6700199031        2.5863567765
 C       -17.8673910625       -2.5136307093        3.6449474272
 C       -18.9510429058       -2.4470113035        2.5243603721
 C       -18.3030343514       -2.9988780120        1.1822719772
 O       -17.3077894621       -3.6995590244        1.2654317695
 C       -19.1057234152       -2.7958402853       -0.2504250523
 C       -18.1413332699       -2.0007044962       -1.1744002256
 O       -17.9191053653       -0.8244636372       -0.8161563739
 C       -17.2368181870       -2.6389257420       -2.1632856847
 C       -16.3867491937       -1.5166175973       -2.9804261199
 C       -15.2515064144       -0.8647340433       -2.2179611593
 O       -14.8654430578       -1.2864235413       -1.1647216853
 C       -14.5867122955        0.3928468058       -2.8789700316
 C       -13.9105217205       -0.1916789422       -4.1941680270
 O       -14.4740867963       -0.9811674565       -4.9436011333
 C       -12.4414382291        0.2007081845       -4.4372527724
 C       -12.0396680184       -0.1859337811       -5.8239218878
 C       -10.5208002184       -0.1530595094       -5.8674774300
 O        -9.9896002357        0.5578209025       -5.0333656780
 C        -9.6385786886       -0.9092158163       -6.8202209183
 C       -10.1573524925       -0.4057423238       -8.2929341775
 O       -10.2595793187        0.7910615857       -8.4625937805
 C       -10.4040362181       -1.4712470765       -9.3601983901
 C       -10.3364974782       -0.9289747793      -10.8126031643
 C        -9.1520244742       -1.5980095767      -11.7584348482
 O        -8.2013847781       -2.1800933699      -11.3235647376
 C        -9.1310115770       -0.9070159098      -13.2439180177
 C        -8.3870256788        0.4659098589      -12.9893659238
 O        -9.0029120346        1.4792669436      -13.1938439688
 C        -6.9140678396        0.5012297679      -12.7545498696
 C        -6.4462327607        1.8962563913      -12.2169882870
 C        -4.9258552184        2.0330009300      -11.8414578998
 O        -4.0370753837        1.6976418688      -12.5905525702
 C        -4.6649489963        2.4674439123      -10.3096360482
 C        -3.1337941291        2.3871727603      -10.0721703831
 O        -2.4770917747        3.2828312416       -9.6014878544
 C        -2.3573516259        1.0634807243      -10.4862720540
 C        -1.7114664668        0.4346209937       -9.2760269522
 C        -0.5950088115       -0.6012725283       -9.6553500581
 O        -0.7697260676       -1.4987280252      -10.4094690612
 C         0.8716249385       -0.4121024405       -9.1041992960
 C         1.7790473273       -1.7978205199       -9.4517121231
 O         2.3855836875       -2.3493830855       -8.5608314909
 C         1.7408558804       -2.3033544434      -10.8940127278
 C         1.1112260620       -3.8208854735      -10.9611596518
 C         1.5321974859       -4.5169794309      -12.1770284978
 O         2.2487526538       -5.4853050926      -12.1587980483
 C         0.9537208268       -3.9811142154      -13.6676027790
 C         1.8608493645       -2.7880129906      -14.0923335888
 O         1.4875440022       -1.6437061981      -14.0170578430
 C         3.3044962474       -3.0331610591      -14.4822835932
 C         4.1718100354       -1.8223254535      -14.0489529235
 C         5.6422748651       -2.2232355953      -14.4534615766
 O         5.8532416145       -2.9768531598      -15.3814010582
 C         6.7097508105       -1.6030301314      -13.5660146465
 C         7.3505679935       -0.6288036900      -14.5608417456
 O         6.5980774657       -0.1309939409      -15.3847595496
 C         8.7121262128       -0.2564450992      -14.4735218796
 C         9.1109831275        0.8253244291      -15.4670185570
 C         9.1556678675        0.1170437049      -16.9465095666
 O         8.7883573420       -1.0048890919      -16.9516440531
 C         9.3868079069        0.9552731947      -18.2994075224
 C         8.9312391183        0.0566386375      -19.4769288683
 O         9.6458118150       -0.5489708265      -20.2717760515
 C         7.4094566837        0.1626289291      -19.9375766845
 C         6.9934893305       -1.0736056633      -20.7019785626
 C         6.9811489126       -2.3265031700      -19.8426511734
 O         7.2551117643       -2.3288768235      -18.6462664707
 C         6.4824382138       -3.6120511439      -20.5246423565
 C         7.4876155624       -4.8328664246      -20.1906845564
 O         7.1138024265       -5.6919970583      -19.3983925884
 C         8.8962730888       -4.9535260181      -20.9057375304
 C         9.8188840886       -5.8319561530      -19.9893079488
 C         9.8286431985       -5.1510157935      -18.6479710023
 O         9.2662871678       -4.0318415420      -18.4808469025
 C        10.5453644747       -5.5937397825      -17.3409295404
 C         9.4413584694       -5.9179618606      -16.2829062227
 O         8.9527776809       -4.9747615243      -15.6600677742
 C         8.7601731739       -7.4033018385      -16.3064380205
 C        11.3548999100       -6.9410042896      -17.6218550494
 C        11.4211727712       -4.5196478697      -16.8113506137
 C         5.0674568103       -3.9432051171      -19.9378758953
 C         6.4284275393       -3.6300522222      -22.0921933884
 C         8.5082256006        2.2137992482      -18.1066189274
 C        10.9183627883        1.2901156038      -18.4322641899
 C         6.2144795839       -0.8589627055      -12.3238692108
 C         7.6077351498       -2.7075582901      -12.9477206483
 C         1.2479401529       -5.1540570475      -14.6350248992
 C        -0.5681774526       -3.8166786594      -13.6075510588
 C         1.5670155694        0.7685283244       -9.8151311970
 C         0.7394336215       -0.2745055660       -7.5004895713
 C        -5.0281251189        4.0210025541      -10.2091158550
 C        -5.5626443700        1.7869447673       -9.2067630648
 C        -8.3314554115       -1.7847007675      -14.2520367724
 C       -10.4941069333       -0.6293213493      -13.7675510554
 C        -8.1701236292       -0.4259399072       -6.5753471830
 C        -9.8304055734       -2.4507195698       -6.6652712909
 C       -15.8005463618        1.3912394945       -3.3101400780
 C       -13.7500279096        1.1965165758       -1.8748953028
 C       -19.3487264741       -4.2723065373       -0.8023372513
 C       -20.3804667081       -2.0153662306       -0.1629726527
 C       -15.9361191099       -2.1998649889        5.8380562067
 C       -14.6252971706       -0.4158465582        4.7153167704
 H       -13.2541598447       -4.3595013709        4.1382505577
 H       -14.2769787692       -4.0239154914        5.5749179697
 H       -12.9455532630       -2.9048165084        5.2514430185
 H       -18.2079534789       -2.4007366541        4.6427484091
 H       -17.4053905345       -3.5662712097        3.6470288286
 H       -19.2305668785       -1.3918997725        2.3696681051
 H       -19.7788449744       -3.0351540888        2.8830783617
 H       -17.6710197513       -3.1137462642       -3.0349752713
 H       -16.6641685521       -3.4512700278       -1.7204758057
 H       -17.1516061564       -0.8752772450       -3.3921747940
 H       -16.0016586467       -1.9808778590       -3.8498406772
 H       -11.7251552549       -0.2032642435       -3.6956545854
 H       -12.4134809394        1.2573051149       -4.3875327586
 H       -12.3682041465        0.6170140145       -6.4956349469
 H       -12.6262016126       -1.0590316021       -6.0263113852
 H       -11.3904705339       -1.9302428507       -9.2625031649
 H        -9.6281924800       -2.2323844418       -9.1951888893
 H       -10.1268856402        0.1534207614      -10.8433997406
 H       -11.3185119455       -0.9058148866      -11.4193189330
 H        -6.3656981361        0.4558858603      -13.6613847880
 H        -6.6318470352       -0.3130530241      -12.1193489916
 H        -7.0258174489        2.1749755099      -11.3554759889
 H        -6.8334461771        2.6433541030      -12.9253493482
 H        -1.5073379775        1.4343827691      -11.0412062635
 H        -2.8846653356        0.2679643148      -11.0762628687
 H        -2.3782134554       -0.0847177224       -8.5565107165
 H        -1.1127794657        1.2030357255       -8.7119686733
 H         2.8162104705       -2.2237433580      -11.2199291786
 H         1.2273244870       -1.6641670288      -11.6624475804
 H         0.0269142348       -3.8059564331      -10.8925663851
 H         1.5925055506       -4.3192460411      -10.1604058528
 H         3.4255057756       -3.0653867220      -15.5975684678
 H         3.7846047537       -3.9954455656      -14.0832029036
 H         4.0512600853       -1.6912437065      -13.0038056257
 H         3.8581590373       -0.8894459159      -14.4803392727
 H         9.4339696457       -1.0869435159      -14.5709705698
 H         8.8080493575        0.1190500351      -13.4214870947
 H        10.1232578472        1.1341571621      -15.4100890201
 H         8.4066361181        1.6632541530      -15.4352460417
 H         7.2807953367        1.0954242706      -20.4512607307
 H         6.7762624860        0.2786459144      -19.0076138326
 H         7.7388691945       -1.3089226868      -21.4674385725
 H         6.0754988131       -1.0344685473      -21.2225302847
 H         9.3927166094       -4.0370123479      -21.0442546320
 H         8.9214976334       -5.4050018675      -21.9200308992
 H        10.8652692614       -6.0938624724      -20.2092267921
 H         9.3103385211       -6.8000952199      -19.6816313738
 H         9.5248263237       -8.1439157324      -15.9689153998
 H         8.5527708120       -7.8507753764      -17.2852467490
 H         7.8426920365       -7.3472118009      -15.7283772903
 H        11.2460376707       -7.6336230842      -16.7562147934
 H        12.3231903834       -6.7135354304      -17.7035936234
 H        10.8745004556       -7.3326705767      -18.4665277002
 H        10.7956592038       -3.7075279696      -16.3287724589
 H        11.8919446517       -4.0250668239      -17.6584283174
 H        12.0411669497       -4.9649367964      -15.9888944350
 H         4.5798624335       -4.8069052163      -20.4566962498
 H         4.3698657422       -3.1457633138      -20.0783398400
 H         5.2397884827       -4.0722217838      -18.8871499546
 H         5.9898268368       -4.6477859848      -22.3178856609
 H         7.4089254497       -3.5131994304      -22.6287944859
 H         5.7850085245       -2.8512463326      -22.5073458193
 H         7.4297024980        2.0646845497      -18.0213296292
 H         8.6676082355        2.8147108123      -19.0552323323
 H         8.9609074587        2.8958915326      -17.3331338334
 H        11.0811167018        1.1566476266      -19.4672905503
 H        11.5521164971        0.5315515152      -17.9633858638
 H        11.1540785572        2.2746201455      -18.1560474189
 H         5.6626405281       -1.5818901385      -11.7462547924
 H         5.6223045276       -0.0821062435      -12.7570844253
 H         6.9667447737       -0.4591435400      -11.7207493128
 H         7.8421449187       -3.3631487654      -13.7436811102
 H         6.9584862487       -3.1541831762      -12.2409544473
 H         8.5668713730       -2.4092531819      -12.3721851969
 H         0.3851590620       -5.7532527834      -14.7151215221
 H         1.9908076245       -5.7681348755      -14.1124771191
 H         1.4613158039       -4.8221733796      -15.6615069923
 H        -1.1388329554       -4.6904961360      -13.3681326063
 H        -0.9761677307       -3.4485330283      -14.5468121442
 H        -0.8677090420       -3.0105609274      -12.8879519021
 H         1.9304759061        1.3708225425       -8.9588340511
 H         1.0242535149        1.3599675914      -10.5799256268
 H         2.4066149777        0.3763255543      -10.3383772795
 H         1.6858450827        0.0020817376       -7.0602389010
 H         0.3256671762       -1.2022680262       -7.0368376924
 H         0.0282427675        0.5507566610       -7.3715123924
 H        -4.6026072729        4.7324594655      -10.9605402973
 H        -4.5864329220        4.3032860964       -9.2238122323
 H        -6.1201873730        4.1155573560      -10.2032586098
 H        -6.5649774095        1.4789516393       -9.5865004911
 H        -5.6431470376        2.4415786207       -8.3781899790
 H        -5.1375684327        0.7960736261       -8.8418032438
 H        -7.5906021413       -2.4383965203      -13.8123884479
 H        -7.9345459887       -1.1355145436      -15.0752242549
 H        -8.9908551664       -2.4580589159      -14.7090660035
 H       -11.0971788030       -1.5215927642      -13.6488412327
 H       -10.5721667678       -0.3359975691      -14.8322562403
 H       -10.9987582841        0.1274228150      -13.1933258912
 H        -8.0925431182        0.6256587718       -6.4783021974
 H        -7.4341607349       -0.7022549197       -7.3330762142
 H        -7.6997920878       -0.8852872649       -5.6732880734
 H        -9.5918921968       -2.7639033182       -5.6006242326
 H        -9.1680723296       -2.9244772131       -7.3404690061
 H       -10.9261235073       -2.6644731554       -6.8208255361
 H       -16.4078168967        1.7268481031       -2.4615799268
 H       -16.3870246456        1.0417282037       -4.1338238268
 H       -15.3006114693        2.2180700934       -3.7294128225
 H       -14.0633666032        0.9800244351       -0.8094356762
 H       -13.9115703120        2.1989190312       -2.1474157783
 H       -12.6943220354        1.0285864020       -1.9525530752
 H       -19.4548883512       -5.0277547568       -0.0186233126
 H       -18.4225915707       -4.5152673872       -1.3032909609
 H       -20.0680388689       -4.3976725322       -1.5579830071
 H       -21.1009709523       -2.4218616123        0.4671677979
 H       -20.7655428854       -1.8081103811       -1.1251642267
 H       -20.1760022583       -1.0061635585        0.2524794575
 H       -16.4600994499       -3.1795746894        5.8205924285
 H       -16.8733122032       -1.6460196236        6.0913533112
 H       -15.1172088875       -2.1434764872        6.5287443247
 H       -13.6876669809       -0.6419399580        5.1814582524
 H       -15.1496756425        0.2756524202        5.3250443637
 H       -14.3530498584        0.0313117510        3.7740494785
 Na      -15.7179099242       -1.8010892208        0.7957703187
 Na        7.9528313933       -3.1005186096      -16.4757079463
