232

 C       -13.6121663031       -3.5170739645        4.6679631902
 C       -14.5768064331       -2.7310577979        3.8210184538
 O       -14.6175779036       -2.9336298150        2.6171516252
 C       -15.5968295962       -1.6497018059        4.4925153159
 C       -16.6777164267       -1.4054114585        3.4691881307
 O       -16.6460909449       -0.5640070933        2.5910098475
 C       -17.7637177786       -2.5008228753        3.6461924404
 C       -18.8998118113       -2.5378964603        2.5115009515
 C       -18.3790609234       -3.0706705481        1.1510547222
 O       -17.2947349109       -3.6000415317        1.1572721937
 C       -19.1081980422       -2.8812324938       -0.1635874179
 C       -18.0673063600       -2.0390961083       -1.0486664480
 O       -17.9305558424       -0.8282912502       -0.8163953554
 C       -17.2429838352       -2.7362499099       -2.1529120936
 C       -16.4136317079       -1.6350588376       -2.9413089673
 C       -15.3469006223       -0.9192556121       -2.1617212004
 O       -14.7482801618       -1.1734786158       -1.0728861875
 C       -14.6258797905        0.4550348385       -2.8543158743
 C       -13.9148072579       -0.1386249184       -4.0658557555
 O       -14.5033236071       -0.9373216355       -4.7764127481
 C       -12.4852626944        0.0856709609       -4.4065435635
 C       -12.0219292598       -0.2287225296       -5.8252691517
 C       -10.5166555137       -0.1207790715       -5.8024491553
 O       -10.0111529615        0.5461226973       -4.9216534203
 C        -9.6593781695       -0.9931960906       -6.8788034521
 C       -10.1139925424       -0.4911808113       -8.4041708898
 O       -10.2834004634        0.7077824281       -8.5127073070
 C       -10.3462874418       -1.5494767468       -9.4606922467
 C       -10.3897580931       -0.8863136756      -10.8596700328
 C        -9.2352048804       -1.3555319578      -11.7393632191
 O        -8.4804681787       -2.2304581025      -11.3554057184
 C        -9.1385577991       -0.8508192440      -13.2328544036
 C        -8.4357289518        0.5417243921      -13.1426722045
 O        -9.1587670745        1.5388960981      -13.1325880825
 C        -6.8619988277        0.5524811650      -12.7592706791
 C        -6.4162720249        1.9023064673      -12.2089525833
 C        -4.9950939361        1.9558432530      -11.6830767856
 O        -4.1107444205        1.7304201642      -12.4839489902
 C        -4.6738147883        2.5223737094      -10.2637310061
 C        -3.0671113979        2.4333006224       -9.9962517311
 O        -2.3931167335        3.3723065551       -9.5742988063
 C        -2.4411003875        1.1008911871      -10.4527411428
 C        -1.5118361109        0.5394131302       -9.3143245330
 C        -0.5741202536       -0.6357339547       -9.7180848348
 O        -0.8986997067       -1.4770901667      -10.5468907132
 C         0.9214690861       -0.5001380825       -9.0409970854
 C         1.6710339065       -1.8361919759       -9.3521544660
 O         2.4022846771       -2.3638233459       -8.5252033089
 C         1.7465197401       -2.2983555381      -10.7971170041
 C         1.2415258914       -3.8121120387      -10.8400225237
 C         1.5665849776       -4.5135806528      -12.1804345836
 O         2.2412643754       -5.5410020253      -12.2007588111
 C         1.0592165861       -3.9565872814      -13.5581089356
 C         1.8615217883       -2.6999124646      -14.0315013802
 O         1.3924321629       -1.5385177115      -14.1420550354
 C         3.2243002274       -3.0703426637      -14.4489314108
 C         4.1056875448       -1.8771760718      -14.1546456505
 C         5.5449058062       -2.2300649589      -14.4210271625
 O         5.8682699709       -2.9046590288      -15.3954106138
 C         6.6418531065       -1.6369194955      -13.5673333685
 C         7.3639717172       -0.5983829205      -14.6281102182
 O         6.6196037873       -0.2817063692      -15.5229826852
 C         8.8576706936       -0.1652923451      -14.5489850132
 C         9.1732775312        0.8392895878      -15.6171287538
 C         9.0491735648        0.0907233874      -17.0301422457
 O         8.9756130898       -1.1132804633      -17.1114617201
 C         9.3735410070        0.9293119476      -18.3020728741
 C         8.9577610138        0.0969290546      -19.4667845074
 O         9.7526596383       -0.6059556248      -20.0140875009
 C         7.4656041822        0.1048377127      -19.9116845816
 C         7.1233355509       -1.0680744916      -20.7665507593
 C         7.0856293009       -2.3345755954      -19.9058974715
 O         7.1195481697       -2.2397224594      -18.6890848676
 C         6.6323340629       -3.7225391254      -20.5450771008
 C         7.4904065183       -4.8364057787      -20.1283997030
 O         7.0773414010       -5.7302834328      -19.3994178763
 C         8.7952783628       -4.9123359137      -20.7143429831
 C         9.7149681630       -5.7847968874      -19.9388887936
 C         9.7786708008       -5.1171801509      -18.5290587330
 O         9.2750201470       -4.0246995028      -18.3956862962
 C        10.5189127430       -5.7241243491      -17.2786449066
 C         9.3470161618       -5.9489569876      -16.3026816224
 O         8.7906825991       -5.0437331724      -15.6666973386
 C         8.8503534201       -7.3168858587      -16.2009923676
 C        11.3609013499       -7.0605940105      -17.7098431771
 C        11.5048224272       -4.5003291090      -16.9164537499
 C         5.1848230255       -3.9937923081      -20.0417026302
 C         6.5832869869       -3.6610440345      -22.1174229357
 C         8.5222881024        2.2168794793      -18.4162372182
 C        10.9345771765        1.2305339131      -18.2598358508
 C         6.1467297222       -0.9079998600      -12.2627097006
 C         7.6379529367       -2.7942395103      -12.9988099226
 C         1.3199704672       -5.1421760607      -14.7138825749
 C        -0.4935247270       -3.6365496770      -13.5136419622
 C         1.5427155560        0.7068367693       -9.7799723594
 C         0.9667840048       -0.1800730709       -7.5043108371
 C        -5.1868656179        4.1002273665      -10.2846817061
 C        -5.4639905962        1.7704212177       -9.2219900583
 C        -8.2318451762       -1.7179624459      -14.1865204632
 C       -10.5813847722       -0.8073433006      -13.7154361321
 C        -8.2002883720       -0.5991473100       -6.6288790465
 C        -9.8065200322       -2.4522382995       -6.6302786656
 C       -15.8126043077        1.3226432099       -3.3275904115
 C       -13.6277145010        1.1526491300       -1.9290119134
 C       -19.3351546484       -4.2653516306       -0.7978091804
 C       -20.4489054252       -2.0103736074       -0.0940617352
 C       -16.2377769410       -2.1941933287        5.8573207507
 C       -14.7825864434       -0.3036752228        4.6727786732
 H       -12.9979318438       -4.0778701639        4.0009769343
 H       -14.2091638799       -4.1168232275        5.4275281484
 H       -13.0733679069       -2.7615549057        5.2467140344
 H       -18.1873194743       -2.3871060946        4.6473944158
 H       -17.2407900695       -3.4946745520        3.7170180500
 H       -19.4575975438       -1.5810360870        2.4907770957
 H       -19.5128759342       -3.3181109855        2.8801790360
 H       -17.7349028626       -3.3154502022       -2.9245811755
 H       -16.5513507782       -3.4215003029       -1.7458939226
 H       -17.1250140534       -0.9431209963       -3.4035786732
 H       -15.8312787458       -2.0684517515       -3.8077504231
 H       -11.9943430299       -0.6478452156       -3.8104055417
 H       -12.1565440412        1.0947434018       -4.1112734839
 H       -12.4662293324        0.4350619737       -6.6259512415
 H       -12.3740547724       -1.3135440209       -5.9733619349
 H       -11.4566459967       -1.7679869708       -9.2026115521
 H        -9.7668739613       -2.4594995675       -9.4108145487
 H       -10.5414788060        0.1976214630      -10.7942081376
 H       -11.2562120856       -1.2191176015      -11.5084314100
 H        -6.1872175681        0.2337662815      -13.5140020383
 H        -6.7855686210       -0.0958672898      -11.8504048606
 H        -7.1408706022        2.1515323543      -11.4770319135
 H        -6.5523637951        2.7355667349      -12.8903173751
 H        -1.9183809485        1.2734605506      -11.4294556260
 H        -3.1479508723        0.3459268295      -10.5225007959
 H        -2.3012995131       -0.0495880112       -8.6789348673
 H        -0.9462340021        1.1665960078       -8.6390847586
 H         2.8056601346       -2.1030341845      -11.1149262261
 H         1.1217779420       -1.7616141880      -11.5127290468
 H         0.1642947524       -3.7837416113      -10.5982631366
 H         1.8111587153       -4.3347700702      -10.0456517816
 H         3.3000857451       -3.2583030357      -15.5902490314
 H         3.6408196768       -3.9372683984      -13.9736558210
 H         4.0097627386       -1.7639102598      -13.0848517340
 H         3.8226285146       -0.9458202419      -14.6014361942
 H         9.6297577190       -0.9611248817      -14.6653918314
 H         8.9728181502        0.2799279037      -13.5463267394
 H        10.0706736381        1.4581380878      -15.7105673451
 H         8.2189709280        1.4412966134      -15.7084345435
 H         7.2220007462        1.0317677191      -20.4275544921
 H         6.8650106936        0.1771367795      -18.9968297633
 H         7.8159503120       -1.1717807515      -21.5729394830
 H         6.1846685785       -0.9747757801      -21.2687871834
 H         9.3837239832       -3.9675220160      -20.8691141234
 H         8.7320363365       -5.3655942427      -21.7267321402
 H        10.7296536713       -5.9188471158      -20.3230438035
 H         9.3331349518       -6.7821139201      -19.7486602352
 H         9.8083638839       -7.8968021241      -15.8949058640
 H         8.6078778828       -7.8266672732      -17.0901027761
 H         8.0072151731       -7.3123719104      -15.5475656471
 H        11.8865325069       -7.3910584223      -16.8692516496
 H        12.1886522709       -6.7091953316      -18.4284865851
 H        10.6092172036       -7.7227268821      -18.1305289589
 H        10.8378067629       -3.6436746876      -16.7516012889
 H        12.0328594966       -4.2065968278      -17.8613944994
 H        12.0349255164       -4.6594183978      -15.9783970450
 H         4.6725809318       -4.8673075124      -20.4826157859
 H         4.5251010066       -3.1623832348      -20.3234546280
 H         5.2916659963       -4.0568401752      -18.9938306169
 H         6.3241635247       -4.6873850132      -22.4491745092
 H         7.3662932172       -3.2086581168      -22.6785542451
 H         5.7292581661       -3.0314014281      -22.3514470321
 H         7.4339755210        2.0628586285      -18.0651846410
 H         8.5134359368        2.5017565387      -19.4440470610
 H         8.9292441162        3.1486026558      -17.9555023513
 H        11.3917920584        0.8833920167      -19.2084924846
 H        11.3608769810        0.7562347791      -17.4375825462
 H        11.0460413853        2.3289399385      -18.1557326380
 H         5.6198071693       -1.6555529338      -11.7225888289
 H         5.5338186483       -0.0669035575      -12.5633551730
 H         6.9104199232       -0.5571850013      -11.6638602796
 H         8.0594451305       -3.1802193649      -13.8992031696
 H         7.0785663873       -3.5297078773      -12.4497228066
 H         8.4176283715       -2.4161560207      -12.3245353355
 H         0.4851956720       -5.8607218230      -14.7487295110
 H         2.1884318557       -5.7156291456      -14.5787745824
 H         1.1594635640       -4.6045139586      -15.6128121775
 H        -1.2083120680       -4.4606160361      -13.3062982232
 H        -0.8260776202       -3.2330620739      -14.5203019993
 H        -0.7635211313       -2.7786900588      -12.8705175891
 H         1.9508569536        1.4696872967       -9.1432812291
 H         0.8996983851        1.1235720712      -10.5242334513
 H         2.2824165496        0.2097166148      -10.3918324632
 H         1.8743867733        0.3240044006       -7.3100399660
 H         0.8349932709       -1.0353646939       -6.8992284366
 H         0.1681251489        0.5744372122       -7.3151905684
 H        -4.8966191328        4.6984870146      -11.1693406701
 H        -4.7191798769        4.5430045389       -9.4633402620
 H        -6.2955372980        4.1217504106      -10.2154677797
 H        -6.4990716760        1.5412710198       -9.6184984857
 H        -5.5217841299        2.2538049757       -8.2428175727
 H        -5.0611077016        0.7183429757       -9.1263513158
 H        -7.4091745079       -2.2690877087      -13.8342750298
 H        -8.0785254036       -1.1587611835      -15.0895523760
 H        -8.9608052221       -2.5012063287      -14.4658164422
 H       -11.1747877360       -1.7614033988      -13.5614501594
 H       -10.6664595566       -0.4859397827      -14.7567658299
 H       -11.1042003329       -0.0214522701      -13.2227130519
 H        -8.1034952035        0.4532667356       -6.5184793838
 H        -7.4498306470       -0.9088472840       -7.3866861128
 H        -7.7587407079       -1.0375441885       -5.7449962305
 H        -9.3224318452       -2.7079809343       -5.7161167059
 H        -9.2407004186       -2.9056526161       -7.4748659775
 H       -10.8637262585       -2.7502386146       -6.5270658115
 H       -16.4441774838        1.5650947649       -2.4608151919
 H       -16.2941947895        0.8801694154       -4.1704017905
 H       -15.4206876355        2.3532045845       -3.7132494004
 H       -13.9078862185        1.0454732209       -0.8710334149
 H       -13.5105091272        2.1818770130       -2.2646359944
 H       -12.6360826477        0.7362793645       -2.0693037905
 H       -19.7901888056       -4.8974955499       -0.0957594966
 H       -18.3551889273       -4.7884145153       -1.1143181914
 H       -19.9295110329       -4.2127114799       -1.7420775951
 H       -21.0409236887       -2.2514878829        0.7579013579
 H       -21.0761617375       -1.9979566227       -1.0370893067
 H       -20.2093019075       -0.9600289086        0.0378168604
 H       -16.7825440420       -3.1592079683        5.7512309424
 H       -17.0516145936       -1.6182189313        6.1614029420
 H       -15.4655266195       -2.3452543724        6.6193204970
 H       -13.8203484497       -0.5047329248        5.0750661224
 H       -15.2950523944        0.3079660857        5.3478313731
 H       -14.5825524862        0.2172965839        3.7058765278
 Na      -15.6757583338       -1.7993028324        0.7538552637
 Na        7.9925021389       -3.1311613066      -16.5782047010
