232

 C       -18.5554205441      -12.2612432038       -0.6174062688
 C       -17.6564428732      -12.7552903456       -1.7281488242
 O       -17.7916502412      -12.5007128395       -2.8793847905
 C       -16.4851791754      -13.8534148360       -1.1580844447
 C       -15.2016427694      -13.8899559645       -2.0596719224
 O       -15.3723802878      -14.1704071780       -3.2420805167
 C       -13.8215198429      -13.6413263133       -1.4813254544
 C       -12.8386523635      -13.4801331021       -2.6101559617
 C       -13.2140050790      -12.3135203810       -3.5271181668
 O       -14.0614201695      -11.4621814379       -3.1665987588
 C       -12.5170512090      -12.1997995422       -4.9178562545
 C       -13.5697709993      -11.8278535917       -5.9882198673
 O       -14.3820973638      -12.6980070480       -6.1800130668
 C       -13.4863663021      -10.6493191639       -6.8366256640
 C       -14.8538334889      -10.0870013410       -7.2827243497
 C       -15.6273940561       -9.6181091802       -6.0693252020
 O       -16.2953347276      -10.3057867006       -5.3080214821
 C       -15.6748645914       -8.0493469158       -5.7672112353
 C       -14.4530680179       -7.1979082518       -6.3055020255
 O       -13.3416372911       -7.5718747271       -5.9772433688
 C       -14.7069435840       -6.0348739685       -7.4133414513
 C       -13.4285050205       -5.4064123230       -7.9634210225
 C       -13.8776442542       -4.4065792215       -9.0073740479
 O       -15.0175684077       -4.2132187364       -9.3202231038
 C       -12.7011489630       -3.8086292962       -9.7551347020
 C       -11.8553974187       -3.0858537933       -8.6368307062
 O       -12.5045371756       -2.8035057202       -7.6307793108
 C       -10.4371681501       -2.5297679225       -8.8250542958
 C        -9.9846478124       -1.8100908344       -7.5337489061
 C       -10.1468870820       -0.3400276392       -7.5832769533
 O       -10.6738108304        0.2269456533       -8.5464475992
 C        -9.5912870595        0.5745097842       -6.4921941076
 C        -8.0525503014        0.5690442379       -6.9725610635
 O        -7.2699014561        0.1054216146       -6.1718949306
 C        -7.7254564429        1.3128861153       -8.3292471201
 C        -6.6616236147        0.7346619248       -9.1778829637
 C        -6.1133024711        1.9012800998      -10.0742255898
 O        -6.3498032294        3.0721239688       -9.8692546688
 C        -5.2094501893        1.4542254393      -11.3451908182
 C        -3.7868381346        1.0261205579      -10.7332334534
 O        -3.5249789172       -0.1172272158      -10.4504285447
 C        -2.7027036098        2.0884823668      -10.7394218948
 C        -1.4308375849        1.4872236860      -10.0824674095
 C        -0.0007569564        2.1919922806      -10.4331668618
 O        -0.0553562982        3.2824746896      -10.9412505702
 C         1.2764125101        1.4764780140       -9.9141446692
 C         2.5032589989        2.4706979786       -9.6602968143
 O         3.5343604373        2.2979217809      -10.2685915707
 C         2.3424665511        3.5516860513       -8.6161369600
 C         3.5138986262        4.4985165203       -8.4187403475
 C         3.5565203693        5.8660031647       -9.2303591016
 O         2.8691888883        6.8364502820       -8.8971551048
 C         4.6259093806        5.9600151034      -10.3927930843
 C         4.2712973145        5.2018797396      -11.6749746735
 O         5.1301356681        4.5819774913      -12.3508802015
 C         2.8293845242        5.1570679980      -12.1748530704
 C         2.7082651897        6.2162606267      -13.2762747162
 C         3.1017922071        5.5691954825      -14.7148323344
 O         3.4906331365        4.4348912825      -14.9332846746
 C         3.0685618519        6.5742210422      -15.9768975837
 C         4.5056442183        6.6462401095      -16.5746577683
 O         4.5899291828        7.0988377900      -17.7234316427
 C         5.6873020314        5.9786540904      -15.9351191935
 C         6.9303096332        5.8724070850      -16.8158158975
 C         7.4251933735        4.4334578560      -16.9940806292
 O         6.9824710575        3.4325473779      -16.4258903877
 C         8.6929319673        4.1391532132      -17.9222411281
 C         9.9211565025        3.4567385605      -16.9072431825
 O         9.5792768306        2.9773163306      -15.8636853834
 C        11.2994292135        3.3451974667      -17.5454331296
 C        12.2669747174        2.4490994766      -16.7189152560
 C        11.5924264389        0.9398475298      -16.5114888059
 O        10.6958295227        0.5139249359      -17.1738474971
 C        12.2080404794        0.0691155043      -15.3446629326
 C        10.9593105508       -0.0609324326      -14.2373748742
 O        11.0863647916        0.3784643268      -13.1360700228
 C         9.5461296305       -0.4019453020      -14.7804686311
 C         8.4799407309       -0.9354299714      -13.8095904368
 C         7.1890339912       -0.0099300323      -13.7277773079
 O         7.2593205865        1.1180448127      -14.2175074277
 C         5.9348399775       -0.4291328116      -12.9316998948
 C         4.6082193009        0.0880916587      -13.7248605934
 O         4.5511751641        1.1743403210      -14.2518183465
 C         3.3717135658       -0.8244630099      -13.7749842400
 C         5.9393164754       -1.9727868487      -12.5629038463
 C         5.6836088596        0.3429522126      -11.6360300513
 C        12.4126851877       -1.3882057757      -15.8208745372
 C        13.4181672429        0.6060543805      -14.6179387913
 C         8.3187843983        3.0660361107      -18.9617531622
 C         9.2007446917        5.4534336884      -18.6731205507
 C         2.1502491910        6.3297473298      -17.1718501718
 C         2.8076308044        8.0487926440      -15.5928694536
 C         4.7359268200        7.4632609330      -10.7568471399
 C         6.0485395876        5.4506504074       -9.9802105514
 C         0.9235047942        0.6785951907       -8.4930106051
 C         1.5446951090        0.3949611892      -10.9784780377
 C        -5.7117222108        0.1545402418      -12.1365176883
 C        -5.0570767128        2.6247566583      -12.3402996375
 C       -10.0192245871        2.0562004327       -6.6445193379
 C        -9.7397286797        0.0854586601       -5.0036490376
 C       -11.9989968569       -4.8139206821      -10.6045492193
 C       -13.3642768157       -2.6436766329      -10.5339370819
 C       -17.0124028406       -7.5286529267       -6.2443078372
 C       -15.7306942722       -7.9051057698       -4.2617515589
 C       -11.3291736954      -11.2734893421       -4.8701212116
 C       -12.0165220072      -13.5802973045       -5.3911759580
 C       -15.9943985003      -13.4083684224        0.2656314814
 C       -17.2646074155      -15.2140297824       -1.0881284232
 H       -18.2908341317      -12.8073686536        0.2875946526
 H       -19.6265331577      -12.4311046173       -0.8078897898
 H       -18.2869132655      -11.1989102459       -0.5031620523
 H       -13.5770148971      -14.3744075189       -0.7546672680
 H       -13.7425917578      -12.6575914056       -0.9678694269
 H       -12.8936940704      -14.3880850785       -3.2136015293
 H       -11.7438049893      -13.3827910526       -2.3057862295
 H       -12.8036782432      -10.7549858817       -7.6461587931
 H       -13.0356539300       -9.6996581271       -6.4386191072
 H       -15.6122148926      -10.8252723893       -7.7439382535
 H       -14.6501807230       -9.2508546487       -7.8909128947
 H       -15.2337953579       -5.2673329577       -6.9485295805
 H       -15.3945488721       -6.3719692929       -8.2319725385
 H       -12.7073574855       -6.1945666029       -8.2880911246
 H       -12.9000585723       -4.8635511238       -7.2231332893
 H       -10.5461787120       -1.8292914096       -9.6178419040
 H        -9.6631155430       -3.2103349242       -9.1893245637
 H        -8.8605524236       -1.9003691041       -7.4441455646
 H       -10.3895255245       -2.1237128866       -6.6080167986
 H        -7.4405476385        2.2724131318       -7.9336333857
 H        -8.5718675763        1.4722413617       -9.0237614688
 H        -7.0432486227        0.0223529271       -9.8848940320
 H        -5.7000671815        0.4041805135       -8.6839550021
 H        -2.9135304046        3.0226020124      -10.2279378550
 H        -2.3177286129        2.2810413825      -11.7636988024
 H        -1.3812224631        0.4875307600      -10.2690560811
 H        -1.4940395010        1.6513959133       -9.0032493802
 H         1.8750811979        3.2418931393       -7.6844431199
 H         1.6308627067        4.1802901313       -8.9970769550
 H         4.4254005747        3.9143781183       -8.6578224795
 H         3.6212940589        4.8035049921       -7.3275316137
 H         2.0374971477        5.3395486482      -11.4412290903
 H         2.6229196219        4.2313382378      -12.6322666982
 H         3.3895941848        6.9840028801      -13.0577135090
 H         1.7073507957        6.6458482320      -13.3992687263
 H         5.3971697496        4.9697517057      -15.7640208771
 H         6.0595014922        6.3576789056      -14.9792107400
 H         7.7619952652        6.3383833997      -16.4773090596
 H         6.7839336788        6.2721403042      -17.8406339782
 H        11.8080618043        4.3221052752      -17.6003121005
 H        10.9604259312        3.0342383973      -18.5459360368
 H        12.4281218811        2.8883267533      -15.7208136837
 H        13.3491525203        2.4416615040      -17.1112863969
 H         9.6909849548       -0.9853601486      -15.6823464049
 H         9.3296349615        0.6946192476      -15.1183361029
 H         8.8890518223       -1.0442734851      -12.8023026213
 H         8.1286402725       -1.9309848510      -14.0367309054
 H         3.0984153084       -1.4906324527      -13.0144996281
 H         3.5060512033       -1.3654937505      -14.7291706478
 H         2.5216507454       -0.2547277138      -13.9147251435
 H         5.3206306007       -2.1960599047      -11.7573056316
 H         6.8949858387       -2.1319823656      -12.0539142421
 H         5.8273334486       -2.7458083287      -13.2925820503
 H         5.4689374631        1.4236458850      -12.0447103014
 H         6.6016973651        0.3053718665      -11.0671767366
 H         4.7181382013       -0.0497189333      -11.2543036814
 H        13.3536240149       -1.3871000062      -16.3392237182
 H        11.5970982721       -1.7348783486      -16.4092692580
 H        12.5828300080       -2.0919225975      -15.0222442976
 H        14.3358309061        0.5234142736      -15.1359170882
 H        13.5961592254        0.0149520289      -13.7382705772
 H        13.0923567300        1.4945415438      -14.1176031698
 H         8.2494380564        1.9896859225      -18.5110590623
 H         8.8568072076        3.0619396754      -19.8680056054
 H         7.2509451880        3.1123184787      -19.3549828213
 H         9.7893896620        6.0922778636      -17.9918032613
 H         8.4254420994        5.8932785708      -19.2092372213
 H         9.9093345168        5.1256185133      -19.5970663001
 H         1.1446557213        6.6873895470      -16.9293773076
 H         1.9498267496        5.3229167971      -17.3659207951
 H         2.5695789280        6.8864942533      -18.0378997736
 H         2.9055977462        8.7890530075      -16.4366799612
 H         3.4114094772        8.3521621590      -14.7267518062
 H         1.8036605388        8.1857277160      -15.2349256207
 H         4.0506310301        8.0342854277      -10.2022665655
 H         4.3027164522        7.7679192288      -11.7586530265
 H         5.5913085882        8.0153862265      -10.7973385316
 H         6.7034869871        5.5149002600      -10.8120559853
 H         6.0413567990        4.3408622423       -9.7846871117
 H         6.3356252728        5.8214919403       -9.0501242156
 H         0.2437018182        1.4398565859       -7.9942737244
 H         1.7797460834        0.4749173497       -7.8628518967
 H         0.5082404653       -0.2911201004       -8.6725945975
 H         0.5794998848       -0.0119250747      -11.3294408976
 H         1.9450491215       -0.3788662277      -10.4167187343
 H         2.0344168259        0.8388007475      -11.8471533516
 H        -5.2084989124       -0.7135870641      -11.7072934603
 H        -5.0297701142        0.2926559654      -13.0520173987
 H        -6.7893075807       -0.0532391550      -12.3820065383
 H        -4.0320227000        2.7271331922      -12.7857284320
 H        -5.4004257086        3.5007611267      -11.7753548187
 H        -5.7644472057        2.5390438820      -13.1515358786
 H       -11.0327763986        2.2485532103       -6.9120150653
 H        -9.3127358795        2.5383919219       -7.3477320588
 H        -9.8886818089        2.6717669752       -5.7258376967
 H        -8.9613429382        0.6589534780       -4.5140840256
 H        -9.5274823691       -0.9671890868       -4.9280191970
 H       -10.7394545556        0.4130745340       -4.7884271183
 H       -11.7240406911       -4.3458442856      -11.5210760596
 H       -12.5507680320       -5.7537103834      -10.8570843368
 H       -11.0751785203       -5.1544410971      -10.2170495091
 H       -14.2758968817       -3.0468585704      -11.0392433219
 H       -12.7442274061       -2.1311313304      -11.3493419571
 H       -13.7817104176       -1.9407506392       -9.8785255950
 H       -17.2213876514       -7.6651219216       -7.2882406588
 H       -17.3705902382       -6.5891614567       -5.8594134573
 H       -17.8666351074       -8.1662480613       -5.8352147251
 H       -14.8187418138       -8.2867634594       -3.9105880893
 H       -16.6535321503       -8.3717362098       -3.8611239126
 H       -15.8397706872       -6.8450543282       -3.8692721325
 H       -11.6228707457      -10.2072236574       -4.6316947158
 H       -10.6970169907      -11.2200837865       -5.7581192663
 H       -10.6898070554      -11.4571617222       -3.9950566336
 H       -12.7855435681      -14.3065348050       -5.5291516495
 H       -11.2922943790      -13.9875019178       -4.6404639411
 H       -11.6375687230      -13.4042099627       -6.3086435033
 H       -15.9812039956      -12.3847489286        0.4423206076
 H       -15.0472094286      -13.8679244145        0.3591754173
 H       -16.7047598220      -13.7432543644        1.0707890811
 H       -17.0480509427      -15.7900985445       -1.9494171072
 H       -18.3109257300      -15.0159559841       -1.0502703904
 H       -16.9507613450      -15.8020031588       -0.2011456783
 Na      -16.2383778209      -12.6042904189       -4.8087182019
 Na        6.0004945753        3.1002675685      -14.1852249437
