232

 C       -13.5587640431       -3.3700676973        4.6324709177
 C       -14.6181566966       -2.5658756222        3.8121012800
 O       -14.6834795370       -2.7301060387        2.6524574368
 C       -15.5741426526       -1.5823101664        4.5280183510
 C       -16.7471548699       -1.4262821716        3.4103142076
 O       -16.6065255149       -0.5620620963        2.6099517276
 C       -17.9306158341       -2.4867349142        3.5137955224
 C       -18.9912717697       -2.5892604235        2.3811161891
 C       -18.3273928318       -3.0819729720        1.1437018637
 O       -17.2009862536       -3.5387520623        0.9989744590
 C       -19.0672592813       -2.9082488985       -0.1634055623
 C       -18.0261111571       -2.0127288909       -0.9696023032
 O       -17.9089372908       -0.8539809202       -0.7733960367
 C       -17.1578027693       -2.6840550143       -1.9615436249
 C       -16.2936210261       -1.6753909475       -2.7657911614
 C       -15.3076823354       -0.8297120837       -2.0725056028
 O       -14.7855320819       -1.2052235776       -1.0207902693
 C       -14.7359633473        0.4741838179       -2.8158202221
 C       -13.9717355010       -0.2816398245       -4.1710936375
 O       -14.6779333928       -0.9655494719       -4.8533689476
 C       -12.4829952719        0.0365550896       -4.2970980627
 C       -11.9794181065       -0.3201989764       -5.7496687575
 C       -10.4665462676       -0.1547831472       -5.7895764096
 O        -9.8397789999        0.4620772104       -4.9689515226
 C        -9.6176432016       -0.9811769337       -6.8959892362
 C       -10.1192203285       -0.5223606718       -8.2942343118
 O       -10.2679446022        0.6229478712       -8.6291854274
 C       -10.3386750081       -1.5695878872       -9.4528363573
 C       -10.4810400345       -0.8892294718      -10.9023233485
 C        -9.3136120195       -1.3958045308      -11.7809254305
 O        -8.6043574422       -2.3090566619      -11.3394001898
 C        -9.2234923637       -0.8111409560      -13.2548321638
 C        -8.5250827365        0.6594898097      -13.0985666364
 O        -9.1313183837        1.6922564927      -13.0873978366
 C        -7.0650612418        0.6217920109      -12.6949725580
 C        -6.5737119225        1.9877642396      -12.1623591217
 C        -5.0662626537        2.0694139667      -11.7248188661
 O        -4.1224838635        1.6933111814      -12.4142567536
 C        -4.6738844074        2.6085197929      -10.2884647717
 C        -3.1068809393        2.4853646361      -10.0534444835
 O        -2.4693092344        3.3820475074       -9.5418911703
 C        -2.5693032625        1.0449686404      -10.3006540002
 C        -1.4520314085        0.6810498050       -9.2233443116
 C        -0.5721174653       -0.5395447461       -9.6729355329
 O        -0.9442019843       -1.3561859337      -10.5071241642
 C         0.8959363334       -0.5765533016       -9.0990192765
 C         1.7529048049       -1.8025876380       -9.3048681013
 O         2.3341687544       -2.3649817359       -8.3933136442
 C         1.8085584146       -2.3725840556      -10.7902923347
 C         1.3657912883       -3.7974349532      -10.8585350837
 C         1.6148596458       -4.5225602105      -12.2497075311
 O         2.2470905846       -5.5502888941      -12.1874727907
 C         0.9743020281       -3.9400232553      -13.6127032078
 C         1.7367600914       -2.7525336364      -14.0976310777
 O         1.2292515522       -1.6599233256      -14.1387476933
 C         3.1528497790       -3.0793846685      -14.4541894974
 C         4.1772885626       -1.9503874332      -14.2393363419
 C         5.6074368290       -2.2699457536      -14.4196266769
 O         5.8656980804       -2.9216734811      -15.4425545326
 C         6.7632082925       -1.6150237283      -13.5954296573
 C         7.3905304079       -0.6102848249      -14.5352021275
 O         6.8137762039       -0.3348746953      -15.5610918925
 C         8.7749291738       -0.0695873885      -14.4815230846
 C         9.0719693196        0.7627130299      -15.7181401398
 C         9.0734421352        0.1185974568      -17.0699478514
 O         9.2121687934       -1.0964526936      -17.2412622783
 C         9.3706098748        1.0025707482      -18.3052514059
 C         9.0600208789        0.0019680123      -19.5760868144
 O         9.8971506994       -0.7830573779      -19.9321599024
 C         7.5770887295        0.0261034347      -19.9652936415
 C         7.2314942445       -1.1128873001      -20.8516720238
 C         6.9127550761       -2.3420764703      -19.9553299450
 O         6.9972968823       -2.2242204901      -18.7692009767
 C         6.4973560698       -3.7083839847      -20.5900089014
 C         7.4496733514       -5.0218251984      -20.1360139645
 O         7.0432841645       -5.7833622365      -19.3307586033
 C         8.9091418222       -5.0103291447      -20.7894738689
 C         9.8005746591       -5.7626026409      -19.8582573025
 C         9.8087009066       -5.0081823858      -18.4331601519
 O         9.2077231274       -4.0000541964      -18.3628854270
 C        10.5007952271       -5.7253926745      -17.3465381569
 C         9.3581812213       -6.0821503643      -16.2217275071
 O         8.7876872312       -5.1226441716      -15.7493962396
 C         8.9138475913       -7.4763653910      -15.9555761251
 C        11.3074237655       -6.9623022242      -17.6737442169
 C        11.6421525087       -4.6536537585      -16.8720460836
 C         5.1136034051       -3.9598777690      -20.1091268349
 C         6.6682799783       -3.6054629588      -22.1717155337
 C         8.5847778035        2.4567612009      -18.4962751008
 C        10.8737394280        1.2139356191      -18.1559339995
 C         6.1833572337       -0.8159651536      -12.2461045193
 C         7.7521469853       -2.7997995320      -13.1983806599
 C         1.1748730445       -4.9869082599      -14.6302541607
 C        -0.4331945816       -3.4585648449      -13.3837785301
 C         1.5847532296        0.6324560784       -9.9022652553
 C         1.0371182501       -0.2311540798       -7.6021684388
 C        -5.1956710033        4.0349594773      -10.3075511844
 C        -5.2788551321        1.7549112226       -9.1719644142
 C        -8.2262986268       -1.7492152945      -14.0027263211
 C       -10.6063154718       -0.8171466284      -13.8562860049
 C        -8.1385199594       -0.6811905282       -6.7782702689
 C        -9.8765909778       -2.5197033203       -6.6159966446
 C       -15.8082492425        1.3618437755       -3.3415540452
 C       -13.6793800972        1.0701660543       -1.8999687944
 C       -19.4216165573       -4.2583492691       -0.7512697638
 C       -20.4448639845       -2.1103257465       -0.0100551886
 C       -16.1668899002       -2.0769392076        5.8526088871
 C       -14.9233241384       -0.2662495148        4.7131206496
 H       -12.7704464828       -3.7292727251        3.9486436885
 H       -14.0818242282       -4.1572375236        5.2243919627
 H       -13.1947676928       -2.6574964019        5.3244327125
 H       -18.4394998029       -2.2660527232        4.5084420196
 H       -17.4850389684       -3.4241573940        3.7123778226
 H       -19.4096688608       -1.6102611876        2.2014527732
 H       -19.7361838111       -3.3269372047        2.7649404716
 H       -17.7210195561       -3.1796539306       -2.7533990281
 H       -16.4568403958       -3.4573808963       -1.6367330952
 H       -17.0446304442       -1.0274475909       -3.2693270000
 H       -15.7258301164       -2.2115510662       -3.6226949716
 H       -12.0078670130       -0.5134486427       -3.5007685842
 H       -12.3218440270        1.1502841523       -4.1852036681
 H       -12.4757709029        0.4226290215       -6.4298958317
 H       -12.2822725276       -1.3763627311       -6.0657089262
 H       -11.1316046418       -2.2936916903       -9.1674816117
 H        -9.3949365788       -2.1339586215       -9.6123485796
 H       -10.3744566707        0.2439425870      -10.8046076384
 H       -11.3113768855       -1.0782684015      -11.5162039495
 H        -6.5942729544        0.5715441026      -13.7357536880
 H        -6.7234622652       -0.1945682458      -12.0273316426
 H        -7.3364543053        2.4896018868      -11.5488348641
 H        -6.5748112247        2.6721444957      -13.0056923277
 H        -1.9345760653        1.1716686903      -11.1805647359
 H        -3.2751238895        0.2496532137      -10.4393683813
 H        -1.7759251042        0.6138074197       -8.1454516427
 H        -0.6677320323        1.4195115291       -9.2185850099
 H         2.8092127347       -2.3088853002      -11.2486683757
 H         1.1247685224       -1.8700359828      -11.4519259535
 H         0.2673144023       -3.8132260266      -10.5591463594
 H         1.9601792294       -4.3361407990      -10.0564771931
 H         3.2921793017       -3.2568708919      -15.4974084333
 H         3.5270320384       -3.9717884575      -14.0200184493
 H         4.0216238394       -1.4092784896      -13.2529346298
 H         4.0852930278       -1.1934755942      -15.0493816269
 H         9.5681139862       -0.8083232225      -14.6911911624
 H         9.1625980378        0.4945915608      -13.6321752662
 H        10.1402339304        1.1455117092      -15.7395899763
 H         8.3890428256        1.5951023820      -15.9338732912
 H         7.3636513052        0.9632600926      -20.5365380359
 H         7.0291286067        0.1458531168      -19.0793720898
 H         8.0023678743       -1.2992197795      -21.6057046720
 H         6.3505741367       -0.8678580613      -21.5121664834
 H         9.4425677228       -4.0048354720      -20.8873216201
 H         9.0050026745       -5.4909929765      -21.7772348916
 H        10.8437211119       -5.8679028737      -20.1373682675
 H         9.5047232287       -6.7830117928      -19.7098985834
 H         9.6055186771       -8.2127382303      -15.7559245147
 H         8.5564375013       -7.7467747747      -16.9650256688
 H         7.9861708816       -7.3989240836      -15.3725192111
 H        12.2107303220       -6.7594034041      -17.0781821167
 H        11.6999751988       -7.0156033038      -18.7521168207
 H        10.6587619705       -7.8135301338      -17.3813010410
 H        11.1654269934       -3.7096529949      -16.8062162067
 H        12.3766884558       -4.5416229525      -17.6562980048
 H        11.9303471865       -4.9037999698      -15.8844091347
 H         4.7886636082       -4.9103170079      -20.4328462703
 H         4.3440383751       -3.2960867888      -20.5397357348
 H         5.1735120090       -3.9726312439      -18.9910626266
 H         6.6968000799       -4.5564771387      -22.5777474644
 H         7.5671142320       -3.0554849935      -22.3336878144
 H         5.9688589446       -3.0108508609      -22.7545071536
 H         7.5937467804        2.3219792532      -18.0453661679
 H         8.5686612396        2.8241419058      -19.5244416537
 H         9.0177827861        3.3377090593      -18.0114673877
 H        11.4231745138        0.5594728456      -18.9004913519
 H        11.1179876644        0.9993720591      -17.1093931575
 H        11.1300432838        2.2928793015      -18.2923658283
 H         5.7043083967       -1.5412595234      -11.6179192686
 H         5.5208794489       -0.0532003954      -12.5869343548
 H         7.0052975199       -0.2947872798      -11.6499593081
 H         8.2466462971       -3.0498615450      -14.1695947288
 H         7.1558600875       -3.6551391420      -12.8165993442
 H         8.3955376077       -2.5184336010      -12.4732639384
 H         0.7301071412       -5.9877346276      -14.5290715160
 H         2.2174176783       -5.2174217784      -14.6541022335
 H         0.7363764526       -4.5317856845      -15.4782872081
 H        -1.1464648039       -4.2599996830      -13.0353853640
 H        -0.9202938974       -3.0236870258      -14.2797284035
 H        -0.4453506852       -2.6090072921      -12.7167458445
 H         1.9567246502        1.4132503794       -9.3000482094
 H         0.8471924415        0.9921028843      -10.5698528135
 H         2.2761543904        0.1795063423      -10.6246339163
 H         2.0706984486        0.1380382789       -7.5514836944
 H         0.9314579943       -1.1355105943       -7.0701556657
 H         0.4395626259        0.5390390850       -7.2095715783
 H        -4.9144472702        4.4024762244      -11.2525422214
 H        -4.7887744277        4.7175522022       -9.5666688446
 H        -6.2652515649        3.9857264893      -10.3336058490
 H        -6.3713823187        1.6702859968       -9.2194309115
 H        -4.9824193641        2.0759803413       -8.1042011836
 H        -4.9623172857        0.7609657227       -9.3523967845
 H        -7.2837614427       -1.9054927387      -13.4505274105
 H        -8.1088891505       -1.4446243416      -15.0073552020
 H        -8.6518223568       -2.7946178806      -13.9607562446
 H       -11.1444562638       -1.7720094738      -13.7422810262
 H       -10.4748257579       -0.5663847298      -14.8977748802
 H       -11.2997945175        0.0209932086      -13.5852623638
 H        -7.7630919856        0.3669738848       -6.9149166826
 H        -7.6055741635       -1.2999463309       -7.4677891602
 H        -7.7120543980       -0.9862454599       -5.8588264277
 H        -9.4681352629       -2.7423303753       -5.6677757608
 H        -9.3179632739       -3.0496271688       -7.4183587891
 H       -10.9018621966       -2.7419817764       -6.5448941207
 H       -16.4934941992        1.6063654349       -2.4965761567
 H       -16.2828406090        0.9393715955       -4.3185690106
 H       -15.4071764184        2.3721094151       -3.6011759453
 H       -14.1494718253        1.3864910242       -1.0227458392
 H       -13.0976694165        1.8808641525       -2.4573277981
 H       -12.9017493825        0.3218109468       -1.6427965132
 H       -20.3954344854       -4.5031338711       -0.2536428677
 H       -18.7589931685       -5.1029838922       -0.5871849126
 H       -19.5863802391       -4.1972648765       -1.8743149733
 H       -20.8839559591       -2.4425752864        1.0009683593
 H       -21.2090349686       -2.2845230283       -0.8058536762
 H       -20.3934183844       -1.0353355993        0.0150452339
 H       -16.5935012525       -3.0538651691        5.8348165422
 H       -16.9770868648       -1.4699853423        6.1743852042
 H       -15.3504982823       -2.1646273266        6.6389005675
 H       -13.9380076148       -0.3717425405        5.1897701678
 H       -15.5749254747        0.3172437252        5.4075863896
 H       -14.7418348890        0.2346311784        3.7812787837
 Na      -15.6923309889       -1.8454702473        0.8194730168
 Na        7.9419651900       -3.0895964784      -16.6977647048
