232

 C       -13.4313416459       -2.8453776891        4.8904530425
 C       -14.4102879541       -2.2767128990        3.9302307315
 O       -14.2835587224       -2.3123766795        2.7512288710
 C       -15.6788381929       -1.4519423619        4.5070524876
 C       -16.8531488897       -1.4986429370        3.5437903297
 O       -16.9390001014       -0.6572737523        2.7138915305
 C       -18.0952369014       -2.5501413495        3.7219888014
 C       -19.0814370345       -2.4131016476        2.5024202550
 C       -18.5597285258       -3.2381050919        1.2954244391
 O       -17.4829657935       -3.7550729926        1.2834826059
 C       -19.1854978026       -2.9565124052       -0.1202051258
 C       -18.0428183731       -2.0654312050       -0.8582462259
 O       -18.0934742182       -0.8699118242       -0.7546227854
 C       -17.0370018126       -2.7660914230       -1.8350699911
 C       -16.2900853926       -1.8018838048       -2.8005367277
 C       -15.3102579498       -0.9063442933       -2.1326907941
 O       -14.9093300766       -1.1212465740       -0.9654187371
 C       -14.7041959497        0.3857801911       -2.8381169675
 C       -13.8308050718       -0.1136609729       -4.1500255258
 O       -14.4625209253       -0.6710259086       -4.9985534719
 C       -12.2828335805        0.0604833795       -4.3338255495
 C       -11.8288701228       -0.5243704133       -5.6037700036
 C       -10.2830457459       -0.4026524530       -5.7491450607
 O        -9.6887342492        0.2880464126       -4.9720076982
 C        -9.5816215565       -1.1938035853       -7.0253302574
 C       -10.1852768887       -0.5920523484       -8.3485426059
 O       -10.3702418952        0.5879568678       -8.4039933229
 C       -10.5639692171       -1.6246986444       -9.4436222125
 C       -10.6638756899       -0.9311548285      -11.0091512940
 C        -9.5095960375       -1.4918384620      -11.9023957711
 O        -8.8013110618       -2.3670256030      -11.4177172164
 C        -9.1150993109       -0.7969378865      -13.2133281148
 C        -8.6877654427        0.6665506672      -12.9389816429
 O        -9.4482871400        1.6248818618      -12.8996569451
 C        -7.2117034568        0.7913476972      -12.5712972714
 C        -6.8005164764        2.1164791072      -11.9496649456
 C        -5.2830712774        2.0424602878      -11.6356381590
 O        -4.5113335992        1.4798791075      -12.3880659999
 C        -4.8045057873        2.6388837272      -10.1777581881
 C        -3.1834956684        2.4763085333       -9.9716176636
 O        -2.4526913995        3.4072787264       -9.6721114847
 C        -2.5478250725        1.0703166385      -10.0488234182
 C        -1.1612545642        0.9624849823       -9.2969001762
 C        -0.4113946679       -0.3551621894       -9.6238707306
 O        -1.0567408755       -1.2887931094      -10.1442833075
 C         1.1093966443       -0.3609803510       -9.2383465455
 C         1.6282061974       -1.8742975771       -9.4258646040
 O         1.9310049572       -2.4843933214       -8.4273080884
 C         1.8587959256       -2.4176459992      -10.8660562507
 C         1.4719130964       -3.9752672760      -10.9197083408
 C         1.6569207972       -4.5188892833      -12.3360147003
 O         2.4089913941       -5.4692977577      -12.4962611275
 C         0.7209654232       -3.9460171119      -13.4750558888
 C         1.6681287486       -2.7925446613      -14.1287848262
 O         1.2619036783       -1.6421783261      -14.1629471535
 C         3.1745235181       -3.2174231746      -14.4418066124
 C         4.1639593904       -2.0600787270      -14.2549307465
 C         5.6032984259       -2.4248440070      -14.5121395790
 O         5.8969831530       -3.2162578886      -15.4179184223
 C         6.8762040201       -1.6757971663      -13.8178989941
 C         7.4820190135       -0.5567546385      -14.9628912124
 O         6.7781196575       -0.2565321994      -15.8904495519
 C         8.8162054656        0.1841465138      -14.5153621607
 C         9.3182820634        1.1413431399      -15.6522675973
 C         9.4743821835        0.2649603452      -16.9704528495
 O         9.3856206019       -0.9617426761      -16.7898094701
 C         9.7018256693        0.9644504843      -18.3945568667
 C         9.3200672773       -0.0410366396      -19.5327082678
 O        10.1385332968       -0.8207911142      -19.9521571968
 C         7.9023036007        0.0154511726      -20.1372494286
 C         7.6412014698       -1.2536839837      -20.8978915157
 C         6.8590035148       -2.4727607729      -20.1244501616
 O         6.5998653646       -2.3197556657      -18.9693087272
 C         6.4413434428       -3.8701797585      -20.9329867219
 C         7.4095811642       -4.9735159764      -20.2050358796
 O         6.9586058756       -5.6414349480      -19.3420500302
 C         8.8675239496       -5.0760241101      -20.7914450586
 C         9.8582754778       -5.7934742606      -19.8594350733
 C         9.8937964298       -5.1354070126      -18.4233253775
 O         9.3384756717       -4.1027742797      -18.2945225576
 C        10.5027252175       -5.9341568437      -17.2368624946
 C         9.3556916377       -6.1496057878      -16.1693099898
 O         8.7672094756       -5.1288114471      -15.8428898292
 C         9.2657644405       -7.3981837941      -15.4447572828
 C        11.3068423903       -7.1547541268      -17.5768354497
 C        11.4146139771       -4.9042757323      -16.4031741815
 C         4.9938527053       -4.1987513455      -20.4453859598
 C         6.5371459342       -3.7631652556      -22.4512627949
 C         8.9186212971        2.2492985880      -18.3719940474
 C        11.2404900249        1.2730320400      -18.7146901246
 C         6.5408472931       -0.8384494047      -12.5393236334
 C         8.0038165250       -2.7425831656      -13.5163202646
 C         0.3518397719       -5.0122322850      -14.4310139055
 C        -0.5793022020       -3.3105644952      -12.8752210739
 C         2.0242339265        0.7333331299      -10.0292245803
 C         1.2248517626        0.0412139986       -7.7793445249
 C        -5.0271609582        4.1378394819      -10.1621117366
 C        -5.6415987578        1.7398651274       -9.2275907785
 C        -8.1118289586       -1.6312481725      -14.0925070347
 C       -10.4388845517       -0.6015453996      -14.0682535961
 C        -8.0550759930       -0.9951552486       -6.9595455413
 C        -9.9207539953       -2.6985357193       -6.7585626378
 C       -15.8679186099        1.1533005227       -3.3981060536
 C       -13.7127896633        1.1537195930       -1.8978080933
 C       -19.4006170373       -4.2674071622       -0.8762015925
 C       -20.5106274256       -2.1022444213       -0.1006873794
 C       -16.0794170105       -1.9939288806        5.8456378560
 C       -15.2442216649        0.0213172268        4.5769392470
 H       -12.4941982714       -2.9324455843        4.3578012945
 H       -13.8169808005       -3.8530660745        5.2412617251
 H       -13.2444910674       -2.1256190534        5.6500010978
 H       -18.6072399323       -2.2431097836        4.6500697397
 H       -17.8328023972       -3.6030759216        3.9453028432
 H       -19.0557128799       -1.3343005008        2.2121775823
 H       -20.0501624353       -2.7025864359        2.8352246529
 H       -17.6376207431       -3.4120147997       -2.4656556349
 H       -16.2585229203       -3.3476315435       -1.3853711195
 H       -17.1111246493       -1.2480662447       -3.1541451292
 H       -15.7409492424       -2.2107239362       -3.6329784401
 H       -11.7008568275       -0.3319194422       -3.5486925605
 H       -12.0696856468        1.1281030591       -4.4884183374
 H       -12.2133549710        0.1413731993       -6.3676603905
 H       -12.1955527547       -1.5494652649       -5.7770598174
 H       -11.5189269850       -2.1665281354       -9.1370868440
 H        -9.7924484482       -2.3665826550       -9.4487960343
 H       -10.4542497427        0.1815438005      -10.9756904642
 H       -11.6572561135       -1.2073083766      -11.4014536132
 H        -6.5380303629        0.5675824778      -13.3516625587
 H        -6.9696175905       -0.0104443295      -11.7967909336
 H        -7.2720764708        2.3142353730      -11.0153344765
 H        -7.2683590543        2.8563028707      -12.6147107704
 H        -2.2205400301        0.8047550660      -11.1115432748
 H        -3.2703972245        0.3547652545       -9.7541728684
 H        -1.1335781586        1.1628481896       -8.1537459713
 H        -0.5290478645        1.8030442746       -9.5170369818
 H         2.9548946360       -2.4749580098      -11.1056502464
 H         1.2466545541       -1.8445509251      -11.5724738597
 H         0.4865938726       -4.0278266190      -10.5241842759
 H         2.0241037999       -4.5094009107      -10.1531001154
 H         3.1998981979       -3.7673860853      -15.4792017323
 H         3.5715128318       -4.0480803229      -13.8462485052
 H         4.1413790480       -1.8675098059      -13.1991892015
 H         3.9176229419       -1.1872756228      -14.7913764782
 H         9.5912438574       -0.5987214347      -14.4370367952
 H         8.8964670853        0.8930934535      -13.7078068039
 H        10.2694220443        1.6541349701      -15.5167582688
 H         8.6088154573        1.9705443495      -15.8734440412
 H         7.9869997594        0.8262700720      -20.8899582018
 H         7.0960101595        0.3597547134      -19.4692853359
 H         8.5148718936       -1.7357859473      -21.2945380406
 H         7.0978673482       -1.0036839625      -21.7800346110
 H         9.3443535782       -4.0811398592      -20.9186048691
 H         8.9178725190       -5.7017365146      -21.6554505567
 H        10.9378758807       -5.8004485193      -20.1349751228
 H         9.7194052390       -6.8665995228      -19.8329249685
 H        10.3338883789       -7.5060286773      -15.1490192035
 H         9.0916658967       -8.2070983250      -16.1501604600
 H         8.5350384449       -7.4864956938      -14.5981726142
 H        11.8084590892       -7.4626744761      -16.6933026940
 H        12.1289730600       -6.8678587717      -18.3115080639
 H        10.7530719848       -7.9029958981      -18.1117488069
 H        10.8302127740       -3.9918962091      -16.1592439883
 H        12.2698962434       -4.6136005004      -17.1235251870
 H        11.8394736557       -5.3083471134      -15.4586796850
 H         4.5650756692       -5.1409852269      -20.7328352319
 H         4.3428241517       -3.4047001696      -20.8872849909
 H         4.9764777674       -4.1673873631      -19.3605656529
 H         6.0174853712       -4.6110040462      -22.9369388015
 H         7.5706032558       -3.6370684742      -22.7842544774
 H         6.0483042036       -2.8680285298      -22.9235111966
 H         7.8465291272        2.0893137700      -18.0731136344
 H         9.1150638826        2.9473019175      -19.1339886529
 H         9.1703701424        2.8787918422      -17.5131840652
 H        11.8906931259        0.5573924381      -18.2667867475
 H        11.3502838530        2.2514872002      -18.4635926469
 H        11.4290270112        1.2200858789      -19.7745309189
 H         6.1106913076       -1.5488114219      -11.8584667833
 H         5.9276154813        0.0674011857      -12.5984401894
 H         7.5274715591       -0.6117705287      -12.1501103030
 H         8.1986767858       -3.5178114956      -14.3080761267
 H         7.7968729699       -3.2938362009      -12.5659531063
 H         8.7952327192       -2.0935791620      -13.3005240164
 H        -0.1403636203       -5.8301278134      -13.8262468022
 H         1.2362896982       -5.5295523401      -14.7110821709
 H        -0.3044335796       -4.6696926820      -15.2122246911
 H        -1.1554181374       -4.0337049453      -12.3138814696
 H        -1.2837743489       -2.9160078901      -13.6059521017
 H        -0.3454334747       -2.4628480862      -12.3186834599
 H         2.1304823108        1.6879659768       -9.4997054030
 H         1.6581147662        0.8984054375      -11.0465766771
 H         3.0005762194        0.1746360400      -10.0895595363
 H         2.1328243694       -0.3296277874       -7.2641521949
 H         0.3260611478       -0.1867835793       -7.2281337206
 H         1.3638683324        1.1696333313       -7.7984201875
 H        -4.2780834517        4.5760708381      -10.8867618862
 H        -4.8181693486        4.5212083467       -9.1759093786
 H        -6.0948973046        4.4022058993      -10.4683852099
 H        -6.6395256544        2.1531718208       -9.1299602187
 H        -5.3593439741        1.7038330994       -8.1470557750
 H        -5.6848052966        0.7374545853       -9.6010058734
 H        -7.3270659453       -1.9713379653      -13.4182537229
 H        -7.6932974787       -1.0724361555      -14.9002634841
 H        -8.7157710495       -2.5194453289      -14.4796269880
 H       -10.9706784848       -1.5206492873      -14.3503691623
 H       -10.2628704901        0.0352784993      -14.8914025230
 H       -11.1360464719       -0.0019078716      -13.5334651963
 H        -7.7354515832        0.0131425292       -7.2516269966
 H        -7.4439421271       -1.7099703988       -7.5404748655
 H        -7.6469046036       -0.9937069898       -5.9755325818
 H        -9.7796166964       -2.8657080646       -5.7096882202
 H        -9.2219922643       -3.3484392073       -7.3911914181
 H       -10.9743906070       -2.9126264507       -7.0384419770
 H       -16.4669412367        1.5619750204       -2.6749713139
 H       -16.3123039281        0.3725251639       -3.9718755597
 H       -15.6002641698        2.0094516542       -4.0113737649
 H       -14.1645442625        1.6338253872       -1.0774865883
 H       -13.0477282318        1.7777721999       -2.5224225641
 H       -13.0465575251        0.3823916008       -1.5341818351
 H       -20.2522011925       -4.7010178311       -0.4357568388
 H       -18.6499498725       -5.0413605418       -0.8797217628
 H       -19.6805638625       -4.0224766737       -1.8995112224
 H       -21.3714689455       -2.6290303139        0.2691774382
 H       -20.7789483348       -1.8209360866       -1.1301054908
 H       -20.4787573612       -1.1998504688        0.3918931841
 H       -16.1617689703       -3.1083621143        5.8186530021
 H       -16.9176214424       -1.4923202668        6.3118747801
 H       -15.2773828908       -1.9134236946        6.6519217884
 H       -14.4251761908        0.0329040253        5.2611816919
 H       -15.9977318496        0.6460862766        5.0076950211
 H       -14.8917381635        0.4202860401        3.6156696160
 Na      -15.8622194632       -1.7629667524        0.9795856139
 Na        7.8020739446       -2.8328480232      -16.8719239694
