232

 C       -13.4718254238       -1.7967609249        4.9215794589
 C       -14.6646288397       -1.5745819737        3.9740057909
 O       -14.6033075006       -1.9194677297        2.8401059632
 C       -16.0059333370       -1.1057214837        4.6722642979
 C       -17.1444170915       -1.3481336652        3.5643402465
 O       -17.0871270135       -0.6834183354        2.5339747668
 C       -18.2433106864       -2.3700480135        3.8952138775
 C       -19.1714465186       -2.7176394323        2.6603573615
 C       -18.4013049753       -3.1022198747        1.4178308039
 O       -17.1954680637       -3.3342343693        1.5055083364
 C       -19.0217799872       -2.9622541564        0.0137115658
 C       -17.9587704776       -2.0311341620       -0.8336617508
 O       -17.7846411658       -0.8803934791       -0.5109833780
 C       -17.0586313246       -2.6482301872       -1.8327168038
 C       -16.3868680109       -1.5042260866       -2.7245054769
 C       -15.2469059649       -0.7263669033       -2.1036144884
 O       -14.8684435983       -0.9029892563       -0.9969872831
 C       -14.6071422029        0.3862838151       -2.9944158007
 C       -13.8941393934       -0.4747739254       -4.1758874032
 O       -14.5093998499       -1.2488377076       -4.9052095722
 C       -12.3547850195       -0.1712122302       -4.3656139788
 C       -11.7735499039       -0.8277157903       -5.6617330660
 C       -10.2920759896       -0.9002271294       -5.7032654310
 O        -9.5400813112       -0.3931907132       -4.9099435883
 C        -9.7454640568       -1.5801032821       -7.1194383184
 C       -10.4506403871       -0.8650499460       -8.3866368315
 O       -10.6833767522        0.3262435231       -8.4490459366
 C       -10.8303760481       -1.7943262762       -9.5623912826
 C       -10.9164775564       -1.0762983383      -10.9331474046
 C        -9.5890266986       -1.3101047945      -11.7675423075
 O        -8.9544969092       -2.3297872164      -11.5922244939
 C        -9.3531858979       -0.5579872365      -13.2093839980
 C        -8.6854440809        0.7769036175      -12.6144553301
 O        -9.3056693500        1.7925714943      -12.3523070627
 C        -7.2363263555        0.6673896841      -12.3261336655
 C        -6.7266802499        1.7932007092      -11.3910383519
 C        -5.2000708775        1.8469043082      -11.2199195515
 O        -4.5008913902        1.2002987955      -11.9719788524
 C        -4.7019553882        2.6645402591       -9.9411536839
 C        -3.1580044483        2.6640014321       -9.8386104749
 O        -2.4819316303        3.6491794084      -10.1686015708
 C        -2.4494886288        1.2254622192       -9.4692988445
 C        -1.0610839068        1.2600679928      -10.0954687947
 C        -0.4082892394       -0.1005562264       -9.8762317447
 O        -1.0015136003       -1.1711701622       -9.8575163039
 C         1.0795112580       -0.1645885243       -9.3469597879
 C         1.5590170832       -1.6694954974       -9.2505523967
 O         1.3712436089       -2.2623715944       -8.2081323162
 C         2.1268492830       -2.4670862993      -10.4684126382
 C         1.2976832197       -3.7169581417      -10.7358386006
 C         1.5153000959       -4.4000972777      -12.1360456381
 O         2.4925682113       -5.1725054485      -12.1990192716
 C         0.8828162767       -3.7389506084      -13.4705746883
 C         2.0282001022       -2.7423822816      -14.1381459408
 O         1.9780473359       -1.5186513767      -14.0157865756
 C         3.2649341064       -3.2439712945      -14.8427549821
 C         4.4466524577       -3.0208672889      -13.9159816561
 C         5.5859484622       -2.5247675028      -14.8672363567
 O         5.6551441937       -2.9277419727      -15.9913531834
 C         6.7991449159       -1.6700947602      -14.3139219697
 C         7.3544490225       -0.6560651682      -15.3352900224
 O         6.9553514666       -0.5928614507      -16.4800871445
 C         8.3210145168        0.4468809946      -14.8516497335
 C         8.8385107251        1.1682320287      -16.0613762703
 C         9.5758533862        0.0790622736      -17.1018258585
 O         9.5868898613       -1.0878500008      -16.8109997703
 C        10.1973736724        0.6923519595      -18.3540861100
 C         9.7706720416       -0.3386313923      -19.5094031527
 O        10.5914612631       -0.9536600725      -20.1462080987
 C         8.2448715153       -0.5415920932      -19.6575136385
 C         8.0052161101       -1.7022396250      -20.6591473777
 C         6.9146582224       -2.7108362009      -20.2279373098
 O         6.5032676847       -2.6020416034      -19.0945748226
 C         6.5842807892       -4.0049215569      -21.0802771238
 C         7.3949893171       -5.2614240886      -20.3743541405
 O         6.9164472226       -5.9253236152      -19.5294693111
 C         8.8884807716       -5.4079107062      -20.9121315483
 C         9.7856955434       -5.8792393407      -19.7733301374
 C         9.7752434510       -5.0862041247      -18.4291631484
 O         9.4765805966       -3.8907086833      -18.5156492380
 C        10.2933264541       -5.7590181587      -17.0838572218
 C         9.1331353802       -5.6186606174      -15.9709795015
 O         8.1627879200       -4.9902482949      -16.1286830939
 C         9.2725140440       -6.3561647229      -14.6362836413
 C        10.8830775407       -7.1520624437      -17.2179346272
 C        11.3661373841       -4.9145826228      -16.4552897172
 C         5.0835027558       -4.3070568419      -21.0122904784
 C         6.8828142537       -3.7858180446      -22.5460994770
 C         9.7178813834        2.1448274992      -18.7157726925
 C        11.8107161004        0.5201715079      -18.3588391186
 C         6.2842454934       -0.8337863969      -13.0804629567
 C         7.9634081902       -2.6865712335      -13.8591527146
 C         0.5948420877       -4.7740743311      -14.5189934551
 C        -0.2789853147       -2.8241842155      -13.2478968437
 C         2.0395439971        0.5948551126      -10.3656546496
 C         1.0742955316        0.4893667957       -7.9279209562
 C        -5.2045282564        4.1340129178       -9.7198935011
 C        -5.2430562611        1.7732633202       -8.7808574883
 C        -8.5243721104       -1.4706280633      -14.1384309959
 C       -10.7587236113       -0.2850486221      -13.8552905330
 C        -8.2533710535       -1.3508714830       -7.1008589510
 C       -10.1355677827       -3.0192257900       -6.9289028235
 C       -15.6568476205        1.3328575481       -3.5731586474
 C       -13.5876315108        1.1476472965       -2.0771407641
 C       -19.1466887236       -4.3467640632       -0.6555771878
 C       -20.3523462026       -2.2051100743        0.0471759670
 C       -16.3407721379       -1.8597316192        5.9601587439
 C       -16.0263538092        0.3736861481        4.9369920558
 H       -12.5755938813       -1.8445711305        4.3246510492
 H       -13.5908311325       -2.7943023602        5.3106281027
 H       -13.3310239866       -0.9549210266        5.6657409305
 H       -18.7440731467       -2.0032299051        4.8017740564
 H       -17.6561448850       -3.2494867791        4.2870490824
 H       -19.7876669493       -1.8339712363        2.4593843575
 H       -19.8750697619       -3.5343205129        2.9304621610
 H       -17.5652944414       -3.3112329990       -2.5221465955
 H       -16.2268855457       -3.1209498245       -1.3163475597
 H       -17.1092377671       -0.6770893754       -2.9967290138
 H       -16.0757686326       -2.0579831341       -3.6286573299
 H       -11.7869750719       -0.5589108355       -3.4941592170
 H       -12.1453401412        0.8637427485       -4.3704060848
 H       -12.1545075177       -0.4055790164       -6.6559117303
 H       -12.0711772503       -1.9265435408       -5.7328051128
 H       -11.6995402571       -2.3018219955       -9.1919180628
 H       -10.0882680366       -2.6785007444       -9.6038197526
 H       -10.9168530495       -0.0155004502      -10.7795816792
 H       -11.7553117380       -1.5587751321      -11.4534282734
 H        -6.6457061499        0.7107104282      -13.2833596458
 H        -6.9495635345       -0.3974922542      -12.1260286183
 H        -7.0963638775        1.7263177750      -10.3810691593
 H        -7.0715829828        2.6736722211      -11.8765865468
 H        -3.0681102076        0.4029844122       -9.7095500714
 H        -2.4473324614        1.1456067395       -8.3419246235
 H        -0.4108468423        1.9844445235       -9.7126378434
 H        -1.0736365269        1.5918167368      -11.1889597657
 H         3.0813232702       -2.9526660393      -10.2697431561
 H         2.2241322110       -1.9146094136      -11.4311811458
 H         0.1824600519       -3.6125600350      -10.5979619519
 H         1.6098774986       -4.3967037143       -9.9082432080
 H         3.3530355300       -2.7859435653      -15.8096654823
 H         3.1868218961       -4.3106278576      -14.9789112509
 H         4.7015627486       -3.9235619238      -13.3885479628
 H         4.1213669607       -2.3201114750      -13.1177611569
 H         9.2736882216        0.1434370954      -14.3955681736
 H         7.7872451072        1.1993718468      -14.2669940805
 H         9.6878416592        1.8605334537      -15.8204741213
 H         8.1393635301        1.8609565406      -16.5969134391
 H         7.8180960059        0.3345991850      -20.1243735509
 H         7.8487265969       -0.6349702340      -18.6404029106
 H         8.9287849376       -2.1656579146      -20.9262047213
 H         7.6052772960       -1.3037770907      -21.5923589953
 H         9.2581018014       -4.4035800176      -21.0863763933
 H         9.1277257147       -6.1262728161      -21.7603743546
 H        10.7931273193       -6.0888829977      -20.0022219048
 H         9.4595093468       -6.8934363094      -19.5127073218
 H        10.3637020878       -6.4774622141      -14.3264282817
 H         8.7849585081       -7.2836441841      -14.7804845718
 H         8.9565029677       -5.8141195003      -13.7906312723
 H        10.6933724809       -7.5189104126      -18.1784594667
 H        10.6166879300       -7.8799857148      -16.4101226525
 H        11.9962613728       -7.3454518666      -17.1465489800
 H        11.0305460479       -3.8687973696      -16.2010668998
 H        12.3768747921       -4.9303476696      -16.9385345906
 H        11.6322742391       -5.3710237510      -15.4668605651
 H         4.9022121095       -5.3389607137      -21.4440402489
 H         4.4322734847       -3.5366374132      -21.3611871057
 H         4.8377219672       -4.4284284745      -19.9906561956
 H         6.4343855411       -4.5478993319      -23.2221873599
 H         7.8957670910       -3.9848449012      -22.8517971995
 H         6.5369007890       -2.8465040257      -22.8863927523
 H         8.6389935291        2.3361556691      -18.7974468247
 H         9.9660028449        2.4378721809      -19.7126256473
 H        10.1982571061        2.8503295493      -17.9993390763
 H        12.0014386077       -0.4349006014      -18.7377489624
 H        11.9338963203        0.3514071705      -17.3454715664
 H        12.3941866860        1.3061660948      -18.8198012953
 H         5.6853607825       -1.4057769533      -12.3954950122
 H         5.6734488209        0.0259989147      -13.3627452549
 H         7.0702334756       -0.4791028843      -12.5291501829
 H         8.6007475847       -2.6067326010      -14.7041458778
 H         7.5608323185       -3.6729409880      -13.8907082490
 H         8.5534436379       -2.4427530267      -12.8951707670
 H        -0.1512625704       -5.4493559071      -14.2298568215
 H         1.5119734368       -5.1891848590      -14.9007066391
 H         0.2522348822       -4.2327373403      -15.4144508483
 H        -1.1626425466       -3.4297847000      -13.0452359306
 H        -0.3939093181       -2.1919553015      -14.1402289166
 H        -0.1603833302       -2.2673533697      -12.2909293790
 H         2.1111413412       -0.0395150107      -11.2899526994
 H         3.0526206295        0.6456717232       -9.9174639539
 H         1.5887886843        1.5118587046      -10.6744858836
 H         1.9640591731        0.1198600425       -7.4681531793
 H         0.3071560885       -0.0828532919       -7.3474157465
 H         0.7920325173        1.5511216951       -7.7882370744
 H        -5.3529604878        4.5025983053      -10.7724501200
 H        -4.4101019187        4.6484415597       -9.1976004291
 H        -6.1589816616        4.1889838366       -9.1763633648
 H        -6.3366256351        1.6477490148       -8.6806621867
 H        -4.8420472148        2.0177585342       -7.8390421608
 H        -4.8950926327        0.6917259212       -8.9036190270
 H        -7.5257596952       -1.6003464890      -13.7737836044
 H        -8.5177191721       -0.9701073199      -15.1335898902
 H        -9.0587647318       -2.3842666867      -14.1395510929
 H       -11.5197762369       -1.0435404483      -13.8390242658
 H       -10.6498655717       -0.0295963227      -14.9225908068
 H       -11.1381114682        0.5516434527      -13.3292658575
 H        -8.0346803999       -0.3669509872       -7.3750354638
 H        -7.6787420188       -1.8600039582       -7.8818485581
 H        -7.7215573856       -1.6070562449       -6.1517511894
 H        -9.7280892285       -3.3086613497       -5.9194792557
 H        -9.6241401809       -3.6754183982       -7.6155995955
 H       -11.2317939094       -3.2090484039       -7.0846502604
 H       -16.1636530778        1.7986208604       -2.7126849534
 H       -16.3586912013        0.8673647622       -4.1797696555
 H       -15.0235754244        2.0096925792       -4.2411690183
 H       -14.2438160700        1.8975133934       -1.5420820827
 H       -12.9368793057        1.7778311550       -2.6026448493
 H       -13.1469889064        0.4982815124       -1.3424845578
 H       -20.0449990720       -4.8854096578       -0.5249591175
 H       -18.2074166347       -4.8698252588       -0.2548436857
 H       -19.0213072083       -4.3211232988       -1.7285792131
 H       -21.0600597955       -2.8130176035        0.5247062624
 H       -20.7569064612       -2.1063375919       -0.9760264357
 H       -20.5012896989       -1.2749073768        0.5952266535
 H       -16.2362269913       -2.9444585405        5.8488020989
 H       -17.2626913368       -1.6929212738        6.5397720730
 H       -15.6873075990       -1.6515117958        6.7484312887
 H       -15.1498853279        0.6530333875        5.4733001696
 H       -16.8721650430        0.7651891597        5.3972601648
 H       -16.0267395774        0.8584601814        3.9424421698
 Na      -15.7032079726       -1.9565888945        0.7700370755
 Na        7.7827520489       -2.9432429014      -17.1720794501
