232

 C       -13.6202003656       -0.9313419133        5.3016429715
 C       -14.7298040045       -1.1192055552        4.2951460636
 O       -14.5248110214       -1.3700238925        3.0856325143
 C       -16.2364291332       -0.9818719278        4.7782830342
 C       -17.2233961689       -1.4195838054        3.7216156195
 O       -17.1968048484       -0.8084261390        2.6683808633
 C       -18.3717274346       -2.4448169239        3.9610447512
 C       -19.1624649089       -2.6540329483        2.7078776845
 C       -18.2835582361       -3.1239719049        1.5370874557
 O       -17.1023297067       -3.3590843985        1.5651753230
 C       -18.9388348162       -3.0242422345        0.0402218772
 C       -18.0640892360       -1.9873375836       -0.6868837341
 O       -17.7934757221       -0.8829157022       -0.2277548063
 C       -17.3020976887       -2.3767726787       -2.0560280053
 C       -16.7266371821       -1.1247707411       -2.7215836373
 C       -15.4161639579       -0.5345214072       -2.1111913742
 O       -14.9717349261       -0.9435110070       -0.9982854276
 C       -14.6379219020        0.3713345789       -2.9561974004
 C       -13.8685216356       -0.6493689349       -4.1133443895
 O       -14.4529270082       -1.5788060119       -4.5753316213
 C       -12.4146505493       -0.1798062411       -4.6041499265
 C       -11.9185641608       -0.9682129418       -5.8623640912
 C       -10.3518770561       -1.3050243634       -5.8835135773
 O        -9.5956009550       -1.1335946694       -4.9457045807
 C        -9.7764564990       -1.9763735707       -7.2118146033
 C       -10.4585353660       -1.4100279770       -8.4753474399
 O       -10.6315625143       -0.1965796595       -8.5299482418
 C       -10.8899731318       -2.2363251993       -9.7224566731
 C       -10.9014362174       -1.2866824661      -10.8717146627
 C        -9.7590418609       -1.3634524897      -11.8421989097
 O        -8.7813101776       -1.9675021201      -11.5145186575
 C        -9.6474962172       -0.3082499184      -13.0362449876
 C        -8.7202198241        0.9084064957      -12.4475834000
 O        -8.9672967014        2.0928598982      -12.2895000305
 C        -7.2706903528        0.4328252035      -11.9763429182
 C        -6.7981479752        1.4766190810      -10.8742136129
 C        -5.3089941345        1.5872313187      -10.7732194266
 O        -4.5283593278        0.9764584313      -11.4861753155
 C        -4.7538283044        2.5599278842       -9.6023734364
 C        -3.0882159102        2.6808855881       -9.8703939174
 O        -2.6236910446        3.6100066267      -10.4487576121
 C        -2.2321930884        1.5172397526       -9.4570045745
 C        -1.0700334450        1.3720331759      -10.5062351811
 C        -0.3614094918       -0.0583464223      -10.2009706945
 O        -0.8850112864       -1.0831878182      -10.5055141737
 C         1.0289558625        0.0753053208       -9.3591579913
 C         1.5511280474       -1.4393911511       -9.2437918039
 O         1.6725378614       -1.9423717450       -8.1431660312
 C         1.7282139329       -2.2564325233      -10.5057320436
 C         0.8602386300       -3.6164592953      -10.7204017546
 C         1.4637993785       -4.2042932809      -12.0700792629
 O         2.3998200099       -4.9313249161      -12.1016529800
 C         0.9103085636       -3.6140767493      -13.4677284170
 C         2.0617656873       -2.7938579555      -13.8620858702
 O         2.2233915073       -1.6215429519      -13.6170633588
 C         3.2366510986       -3.3767989922      -14.7929743574
 C         4.6393702407       -3.2108122989      -14.0392863785
 C         5.7500348567       -2.6045094723      -14.8511139858
 O         5.8791401804       -3.0924703907      -15.9605571759
 C         6.8076022381       -1.5660912570      -14.2698873849
 C         7.1207081627       -0.4794114287      -15.4183778316
 O         6.4936025658       -0.5309857744      -16.4563680903
 C         8.1491504182        0.6054498998      -15.2571077699
 C         8.9571922261        0.9770661394      -16.5260960909
 C         9.6973353008       -0.1604562733      -17.2502492936
 O         9.6386674805       -1.2898317236      -16.7698318328
 C        10.6534445459        0.1570130301      -18.3683798707
 C        10.1081350202       -0.5162929577      -19.7279438909
 O        10.9305204887       -0.8448591234      -20.5312794552
 C         8.5919239966       -0.7479948124      -20.0328911576
 C         8.2176855530       -1.9542613247      -20.9868852501
 C         7.1406831253       -2.9571084031      -20.3899882643
 O         6.6162599743       -2.7942049512      -19.3129196773
 C         6.7979690743       -4.2563069008      -21.3569551421
 C         7.4809575449       -5.5213896881      -20.7827558703
 O         6.7722912898       -6.3431342071      -20.2054662510
 C         9.0410017953       -5.7736495202      -20.9178877854
 C         9.8598181153       -6.1217533767      -19.6512520535
 C         9.5897138545       -5.2675243967      -18.4209637473
 O         8.9130989576       -4.2723443484      -18.5011217876
 C        10.1093311584       -5.6279846692      -17.0447682105
 C         9.1118826113       -5.2508922662      -15.9113574280
 O         8.3347033860       -4.3300753246      -15.9888988306
 C         9.0768031922       -6.0696503223      -14.5639550825
 C        10.7344463773       -7.0235415696      -16.9177513239
 C        11.2614945119       -4.5098344418      -16.6743179078
 C         5.2828278264       -4.5062523007      -21.3458433107
 C         7.2773781366       -4.0690587402      -22.7947660554
 C        10.6067408059        1.7317541250      -18.6128950512
 C        12.0486502285       -0.3844136355      -18.0024553764
 C         6.2925677508       -0.7553831774      -12.9741705558
 C         8.1459293526       -2.1998693849      -13.8048404545
 C         0.4272884793       -4.8465826819      -14.4664390572
 C        -0.3457814933       -2.5682733303      -13.4297062762
 C         2.1839795248        0.8866612341      -10.0734063227
 C         0.8207613389        0.6554627192       -8.0565936243
 C        -5.3690332849        4.0224509564       -9.5952111651
 C        -5.0206316242        1.9766702187       -8.2380986194
 C        -8.8218105289       -1.0967909702      -14.1759576726
 C       -11.0361736745        0.2161349166      -13.4418422405
 C        -8.2942442754       -1.6411259773       -7.4379664055
 C       -10.0776060384       -3.5026871835       -7.1515806593
 C       -15.5144909934        1.3338494071       -3.7929654279
 C       -13.5132838985        1.0645456683       -2.1990177185
 C       -18.8352844651       -4.4119090385       -0.6913759275
 C       -20.4157634590       -2.5454370033        0.0977000890
 C       -16.3809895267       -1.5900476719        6.1189794912
 C       -16.4144476716        0.5422464802        4.8979956267
 H       -12.6978489664       -0.7403668597        4.7471301013
 H       -13.5529022500       -1.9382170948        5.8255084745
 H       -13.9157798543       -0.2050964396        6.0037302857
 H       -18.9983202455       -1.8903834345        4.6418268237
 H       -18.0359075242       -3.3998682571        4.4695078675
 H       -19.6551876418       -1.6385274730        2.5254319696
 H       -20.0316798311       -3.2731621015        2.8663435303
 H       -18.0798471330       -2.8459086777       -2.6809336285
 H       -16.5360832914       -3.1107652050       -1.8197682534
 H       -17.4591465214       -0.2977484353       -2.5019555880
 H       -16.5444436603       -1.1666441973       -3.8356195279
 H       -11.7533837745       -0.3598737334       -3.7662058736
 H       -12.3990922453        0.9053754207       -4.6818466041
 H       -12.2256063118       -0.4424733525       -6.8168159345
 H       -12.5353925500       -1.9120920121       -5.8691614435
 H       -11.8402070548       -2.8281193874       -9.6681735965
 H       -10.1188516285       -3.0432614830       -9.7573491401
 H       -10.9688033628       -0.3357135963      -10.3977253840
 H       -11.8513074810       -1.5832955202      -11.3356164194
 H        -6.7991728188        0.5891995862      -12.9413369953
 H        -7.1306044949       -0.7163158978      -11.7716097459
 H        -7.1794533640        1.1444770696       -9.9383602256
 H        -7.1414012741        2.5097462751      -11.0728014714
 H        -2.9561322309        0.6875451420       -9.3765813246
 H        -1.8951116358        1.6447324247       -8.4220540074
 H        -0.2532777750        2.0429184912      -10.2383037105
 H        -1.3874450529        1.4617494964      -11.5132956147
 H         2.7981597759       -2.3726876926      -10.6404146286
 H         1.5918713604       -1.6422998500      -11.3706748248
 H        -0.2220994609       -3.4343739640      -10.8335892524
 H         1.1708496254       -4.2574254388       -9.8413866985
 H         3.3425765338       -2.7947454997      -15.6719163253
 H         3.1919792233       -4.3938206678      -14.9608255991
 H         4.9905786685       -4.1438102189      -13.6018127543
 H         4.4939820657       -2.6161244088      -13.1261343936
 H         8.8538902353        0.4111727971      -14.4367210604
 H         7.7314017053        1.5714223735      -14.9209717908
 H         9.6230533590        1.8196787200      -16.2551341565
 H         8.2600245402        1.4309736572      -17.3214229835
 H         8.3427801822        0.0322179422      -20.6969058840
 H         7.9379960700       -0.6729202050      -19.1525349404
 H         9.0184557679       -2.6409857933      -21.2233107670
 H         7.8819363705       -1.4829783456      -21.8772656320
 H         9.5842281468       -4.9503136892      -21.4197656589
 H         9.3106256350       -6.5910510402      -21.6168250413
 H        10.9105180557       -6.1825170968      -19.9404462321
 H         9.6555319288       -7.1269442232      -19.3463487207
 H         9.7372741563       -5.7108193363      -13.8318672291
 H         9.2584738235       -7.1361028870      -14.7700465932
 H         8.1314812546       -5.8944909647      -13.9963758474
 H        10.2938855010       -7.8364712579      -16.1984214677
 H        11.7479591396       -7.0932683670      -16.5795986216
 H        10.6353870783       -7.6060129275      -17.8117552403
 H        11.0581245753       -3.4286915731      -16.6513126514
 H        12.1577435689       -4.5851209701      -17.3491680680
 H        11.5257820738       -4.7596425308      -15.6347818448
 H         5.1024981399       -5.2914338571      -21.9875780306
 H         4.6667038893       -3.7379198954      -21.8342322013
 H         4.8607801453       -4.6418164498      -20.3384683695
 H         6.8884707867       -4.8646307779      -23.4499935295
 H         8.3430167472       -3.9247091812      -22.9658441478
 H         6.8822086903       -3.1025281438      -23.2081760930
 H         9.7925351814        2.0459195466      -19.3185947429
 H        11.4745440484        2.0637059460      -19.2264548684
 H        10.8027384326        2.3871871271      -17.7706612443
 H        12.1029428437       -0.5346099485      -16.9504279059
 H        12.7296348563        0.3872808853      -18.2687967661
 H        12.2372913664       -1.2499740026      -18.5737593878
 H         5.9391822966       -1.3264815104      -12.1586705786
 H         5.6154495429        0.0229019176      -13.1495898607
 H         7.1446332678       -0.2115186094      -12.5263113406
 H         8.5176702751       -3.0009477827      -14.4957379327
 H         7.7846930697       -2.6216019653      -12.8392721380
 H         8.9207852439       -1.5761815572      -13.5416502794
 H        -0.5378850408       -5.2579945575      -14.0014081070
 H         1.0865519290       -5.6568762217      -14.7010546727
 H         0.1219850573       -4.3639458551      -15.3817450434
 H        -0.9422131995       -2.6932779554      -12.5185554492
 H        -0.8939377437       -2.6566322240      -14.3759347100
 H         0.0417163865       -1.5839407343      -13.4009447373
 H         3.0225480095        0.3371519940      -10.4758542482
 H         2.3441378669        1.7471183580       -9.4310851765
 H         1.6817380349        1.4288239725      -10.9288550918
 H         1.7929132953        1.0763914067       -7.6571875688
 H         0.5047020322       -0.0298040959       -7.2821278516
 H         0.1359639235        1.5299276233       -8.1726235232
 H        -5.1490673918        4.5575724152      -10.5248869514
 H        -4.9055054015        4.5389379637       -8.7476969734
 H        -6.4554554257        3.8649139795       -9.3280558069
 H        -6.0593326186        1.6682174052       -8.1058879587
 H        -4.8716688170        2.7284932640       -7.4003355620
 H        -4.4601054485        1.1242101593       -7.9689765568
 H        -8.3860254129       -1.9790664525      -13.7231305333
 H        -8.2009834801       -0.3972228628      -14.6332382170
 H        -9.5159574071       -1.5101088335      -14.9381994583
 H       -11.8362132956       -0.5373479403      -13.3053351489
 H       -11.0320090496        0.5390520758      -14.4496036075
 H       -11.2033938989        1.1030597773      -12.8410122906
 H        -8.1593332101       -0.5335818615       -7.6161283696
 H        -7.8233516049       -2.1469786066       -8.3028468886
 H        -7.6539653215       -1.7989562046       -6.5963477347
 H        -9.9921726644       -3.8699615282       -6.1648076580
 H        -9.5537726075       -4.1914158875       -7.8957800396
 H       -11.1689679086       -3.5791288341       -7.2404595200
 H       -16.0781437521        1.9730083352       -3.1158882204
 H       -16.2829294810        0.6440360785       -4.2996505641
 H       -14.9260809323        1.8531934547       -4.5014590035
 H       -13.9088994148        1.7081602101       -1.4715966066
 H       -12.8820901959        1.7591362818       -2.8285936960
 H       -12.9202444065        0.3278525890       -1.6691380606
 H       -19.5842358696       -5.0768433740       -0.2055867252
 H       -17.8758731421       -4.8238953268       -0.6628742854
 H       -19.0896932898       -4.1825303567       -1.7496159747
 H       -21.0910784718       -3.2627706894        0.6127728784
 H       -20.8665229962       -2.2612436180       -0.8328727261
 H       -20.4000406993       -1.6496791250        0.6362005547
 H       -16.3340604632       -2.6229546520        6.1721168584
 H       -17.3229371834       -1.5347036111        6.5216415643
 H       -15.5687994236       -1.2751810546        6.7426004035
 H       -15.8408953971        0.9951441677        5.6962004380
 H       -17.4702532928        0.6625178141        5.2060904034
 H       -16.1960641037        1.0994617298        4.0215620195
 Na      -15.8557345028       -1.3132967529        1.0191597369
 Na        7.8213857511       -2.4811611067      -17.3285382363
