232

 C       -18.6598981174      -12.0211026103       -0.6671795509
 C       -17.6105081594      -12.7320082850       -1.6171537743
 O       -17.7234552059      -12.6571184787       -2.8460269784
 C       -16.6100869105      -13.7594869673       -1.0601855339
 C       -15.3454229474      -13.7467149782       -2.0083649502
 O       -15.4325460740      -14.0180799155       -3.1940068398
 C       -13.9612804796      -13.4411673369       -1.3736970714
 C       -12.8326698833      -13.3673503234       -2.4525622547
 C       -13.1571263138      -12.2330918606       -3.4699721872
 O       -13.9601576009      -11.3773241723       -3.2932459073
 C       -12.3785647574      -12.2145018491       -4.8796671184
 C       -13.4382470208      -11.8074994637       -5.9590518130
 O       -14.4081792294      -12.5856549268       -6.1532571034
 C       -13.4438347107      -10.4749557931       -6.6384486927
 C       -14.8158104413       -9.9633237360       -7.2049787341
 C       -15.6376799109       -9.5022112648       -5.9455127347
 O       -16.1727347268      -10.3526272410       -5.2719507251
 C       -15.8214718256       -8.0186409016       -5.7275096828
 C       -14.5986543566       -7.2039921836       -6.2671233562
 O       -13.5509966324       -7.6787160772       -5.8896394930
 C       -14.7718324304       -6.1179971964       -7.2587587637
 C       -13.5094622811       -5.7590180229       -8.0151988384
 C       -13.8370227200       -4.6696318034       -9.0538777483
 O       -14.9925117877       -4.6051662328       -9.3197921344
 C       -12.7577798130       -3.7609016028       -9.8581500570
 C       -11.9271936144       -3.0263031003       -8.7422596299
 O       -12.4804528289       -2.8652553414       -7.7001117360
 C       -10.4551243672       -2.4733247760       -8.8929306070
 C        -9.8973452531       -1.7144612818       -7.7425003446
 C       -10.2490644722       -0.1915120860       -7.7865756004
 O       -10.8753866837        0.2410331351       -8.6818539500
 C        -9.6265649000        0.5646604877       -6.6578311220
 C        -8.0075891077        0.6056124500       -7.0621513455
 O        -7.2264553504       -0.1451702702       -6.5205061776
 C        -7.6843970084        1.4610690199       -8.3146724652
 C        -6.7270393170        0.6534483402       -9.2405151351
 C        -5.9960420230        1.7424888106      -10.1907016150
 O        -6.1946589857        2.8976245609       -9.9826390263
 C        -5.0845589441        1.3204651744      -11.4592987875
 C        -3.6399834222        0.9373397608      -10.9349881595
 O        -3.4806020173       -0.1515657362      -10.3869208341
 C        -2.5413991713        1.9995863812      -10.7851051939
 C        -1.3398976373        1.4531969881       -9.9001170824
 C        -0.0596939888        2.1016553561      -10.1674413827
 O         0.0456611658        3.1892929056      -10.6843329478
 C         1.2816968116        1.4167326441       -9.7149287667
 C         2.3853030714        2.4752643480       -9.6366460803
 O         3.3592821961        2.3644941935      -10.3457641240
 C         2.1442716730        3.6420868884       -8.7004262526
 C         3.5030070497        4.3959923957       -8.3642439621
 C         3.5605643457        5.7534285888       -9.1565237906
 O         3.0140942324        6.7306801301       -8.8248935956
 C         4.6657236176        5.8372107669      -10.3807905876
 C         4.2782736586        5.1249715264      -11.7354983091
 O         5.1684564231        4.5414214704      -12.2939247340
 C         2.8656320447        5.1021537120      -12.1855510211
 C         2.4706210400        6.1363492167      -13.3401112602
 C         3.0971008852        5.5782386515      -14.7568534009
 O         3.3459919646        4.3984390274      -14.9750659277
 C         3.2120046520        6.6543719758      -15.8845544582
 C         4.5631287150        6.7285479829      -16.6222737040
 O         4.7536181255        7.2990011236      -17.6746059436
 C         5.7428146073        6.1390442449      -15.9899338222
 C         7.0319975985        5.8844730458      -16.9352914070
 C         7.5533618701        4.3627696824      -17.0317920891
 O         6.8785912217        3.5559588274      -16.4302979503
 C         8.7766001235        4.0296667225      -17.8917778306
 C         9.9256419703        3.4679830610      -16.9590284137
 O         9.6592890025        3.1764720049      -15.8165783174
 C        11.4309262015        3.1713662316      -17.5963115634
 C        12.1433181333        2.3139887080      -16.5582123606
 C        11.5941455473        0.8728546624      -16.6119990764
 O        10.8206742930        0.4348625222      -17.4708476449
 C        12.1231879048       -0.0331001012      -15.4695257631
 C        10.9031699414        0.0620369206      -14.3794090760
 O        11.1280701026        0.5890142411      -13.3310491507
 C         9.4746774560       -0.3066627744      -14.8636136114
 C         8.4895185764       -0.6826027475      -13.7897368467
 C         7.2294916521        0.2283956489      -13.7698063941
 O         7.2973050990        1.3989506243      -14.1655879141
 C         5.9336634069       -0.3201866657      -12.9719490258
 C         4.5740118443        0.1369464669      -13.6130271624
 O         4.3857975620        1.2448996091      -14.1375860513
 C         3.3545746495       -0.7487542109      -13.6961457557
 C         5.8930025330       -1.8996023148      -12.9076289137
 C         5.8526746995        0.3395817726      -11.5487754747
 C        12.2990373126       -1.4924954649      -15.9763540519
 C        13.4625910336        0.4078675262      -14.8568897855
 C         8.5253314202        2.8348388593      -18.8418203500
 C         9.3238646264        5.3527642361      -18.7605949288
 C         2.0470881760        6.0876011569      -16.8405338254
 C         2.8091268824        8.0787875035      -15.3842000675
 C         4.8578936796        7.3054507112      -10.6893632305
 C         6.0276207146        5.3426439973       -9.7613514113
 C         1.1663443839        0.6711062540       -8.3928811440
 C         1.6204873607        0.4827341028      -10.9344972685
 C        -5.6568956829        0.1419959948      -12.2812320509
 C        -5.0095705484        2.5861843446      -12.3510142364
 C       -10.3150889782        1.9470306636       -6.4834205915
 C        -9.8802162301       -0.1610504398       -5.1286134631
 C       -11.7822669312       -4.6049830993      -10.6647942802
 C       -13.3405536741       -2.7657601732      -10.7918370153
 C       -17.1073865861       -7.5226703955       -6.3513678671
 C       -15.9087628047       -7.6984495093       -4.2113838764
 C       -11.3639338573      -11.0383711749       -4.7212714640
 C       -11.5832372225      -13.5062643397       -5.2031722863
 C       -16.3675571632      -13.4903642212        0.4613848327
 C       -17.2045287001      -15.1475033458       -1.2588375150
 H       -19.3927838319      -12.7403644842       -0.3611818526
 H       -19.1800386525      -11.3072057797       -1.3235233830
 H       -18.1980435855      -11.5441760800        0.1998243945
 H       -13.6902182275      -14.2759865768       -0.6715859300
 H       -13.8511948787      -12.5325245388       -0.8342842497
 H       -12.7836802840      -14.3206466596       -2.9924587036
 H       -11.8853928079      -13.2662036395       -2.0036078210
 H       -12.7170162588      -10.3847247919       -7.4995313371
 H       -13.0954375106       -9.6489373692       -6.0688550749
 H       -15.3781461259      -10.7084488066       -7.6533134820
 H       -14.5812337047       -9.1478627109       -7.9067235861
 H       -15.1443845341       -5.2175069353       -6.6558042141
 H       -15.5684196077       -6.3361167213       -7.9461950437
 H       -13.1971883714       -6.6723131525       -8.5230001199
 H       -12.6599862824       -5.4227626507       -7.3700203978
 H       -10.2948064214       -1.9770630779       -9.8873433819
 H        -9.9165016874       -3.4486498110       -8.9947660974
 H        -8.8455677083       -1.8503061042       -7.6159762374
 H       -10.3719418992       -2.0431130548       -6.7716197134
 H        -7.2073283175        2.4500709480       -8.0017120438
 H        -8.6384811549        1.6841808414       -8.7955963470
 H        -7.1691637090       -0.0998163501       -9.9038485976
 H        -6.0500292350        0.2554498456       -8.5495296791
 H        -2.8356728974        2.8952847783      -10.2242050289
 H        -2.1537412471        2.3205932325      -11.7280669037
 H        -1.1392007307        0.2825480564      -10.0546270280
 H        -1.5101797142        1.7018878220       -8.8547036921
 H         1.6925965753        3.2633519648       -7.7873641171
 H         1.3238472038        4.4565041146       -8.8954507398
 H         4.3843005489        3.8209755463       -8.7096885548
 H         3.5439688307        4.5742666266       -7.3067049167
 H         2.1209111238        5.0641214977      -11.4008264681
 H         2.7596185677        4.1256990892      -12.7930077563
 H         2.9402688583        7.1197902654      -13.0748828896
 H         1.4071335508        6.2693442633      -13.5088756397
 H         5.4603774836        5.1072518741      -15.6232094959
 H         6.0977183697        6.7053357201      -15.1339721993
 H         7.9817506788        6.5911946336      -16.7505751666
 H         6.7618875896        6.1278273580      -17.9856627521
 H        11.9182863034        4.1495568627      -17.8430398747
 H        11.3061009197        2.5480722953      -18.4920527608
 H        12.1887587191        2.6426531759      -15.5376223277
 H        13.1687510610        2.1627959899      -16.7714199065
 H         9.6844708479       -1.1482196936      -15.5524843301
 H         9.1300937834        0.5061672420      -15.4096435652
 H         8.9889662893       -0.6478866889      -12.7886693465
 H         8.1293249403       -1.7396096009      -13.8538382235
 H         3.4782708494       -1.8182763563      -13.4885568628
 H         2.8789314671       -0.6982109157      -14.6900060290
 H         2.5828003813       -0.5174057446      -12.8316671761
 H         4.9890302788       -2.3126715621      -12.4033695425
 H         6.7016509675       -2.2955652122      -12.3087164991
 H         5.9970996826       -2.3271068842      -13.9108710514
 H         6.6477180775        1.0203718399      -11.5064265579
 H         6.0602274604       -0.5009555588      -10.8310513321
 H         4.9101977337        0.8257445838      -11.5084383247
 H        13.2739801162       -1.6662927617      -16.4418253150
 H        11.4224798545       -1.9220418764      -16.4719565703
 H        12.3363001692       -2.0350047804      -15.0188652895
 H        14.2250868120        0.4849245218      -15.6565733182
 H        13.8569027972       -0.3349268869      -14.1435065448
 H        13.3547439649        1.2153725378      -14.1322376912
 H         8.6026788113        1.9863230939      -18.2230587570
 H         9.1703742576        2.7084003303      -19.7505248386
 H         7.5556249410        2.7299358009      -19.3005081905
 H         9.2011323046        6.2079339416      -18.0963130188
 H         8.7098923525        5.4661553437      -19.7018743000
 H        10.2636450075        5.1959215393      -19.0929417535
 H         1.2826898397        5.5650879315      -16.2230118421
 H         2.4864815486        5.2645934510      -17.5793707300
 H         1.5933604090        6.8444137246      -17.4665601249
 H         2.7867506130        8.7508440268      -16.2502571572
 H         3.4367027239        8.4703271006      -14.5359062588
 H         1.7408958710        8.1930527440      -15.0313363038
 H         5.0474220804        8.0113037646       -9.8353824279
 H         4.1330762833        7.8812271213      -11.1722735635
 H         5.7288436699        7.4688334410      -11.3760757413
 H         6.9639925433        5.6287716641      -10.3394984803
 H         6.1230669637        4.2543770864       -9.7591005725
 H         6.0223984286        5.7042232076       -8.6321561635
 H         1.1100394327        1.1732686911       -7.5151053745
 H         2.0230388989        0.0376335973       -8.3902922305
 H         0.3373289769       -0.0149810160       -8.5228073248
 H         0.7028070755        0.0360699942      -11.3359773458
 H         2.3474427358       -0.3342656648      -10.6186628083
 H         1.8306130585        1.2181046047      -11.6990194363
 H        -5.7163469497       -0.7318775747      -11.6378007640
 H        -5.2271069582       -0.1001563419      -13.1836002400
 H        -6.6717995021        0.4921175703      -12.4104004370
 H        -4.1425339252        2.4076279506      -12.9516092465
 H        -5.0197595402        3.5055591059      -11.7801786041
 H        -5.8632066640        2.6676269959      -13.0443556473
 H       -11.3760270044        1.7098032804       -6.3056501209
 H       -10.2234692045        2.6604498667       -7.2534792707
 H       -10.0973989128        2.4655387150       -5.5574629513
 H        -8.9588961144       -0.3455537663       -4.6000660593
 H       -10.3178709416       -1.0958717873       -5.3692752435
 H       -10.5076506894        0.5682975181       -4.6559539496
 H       -11.0378438261       -4.0547706504      -11.3217130076
 H       -12.3588465257       -5.3049749979      -11.2646670137
 H       -11.1374261180       -5.3556780531      -10.0994944641
 H       -14.2580047815       -3.0558047876      -11.2696645678
 H       -12.6156626264       -2.6356313733      -11.5328902200
 H       -13.6105499294       -1.7639572055      -10.3541640950
 H       -17.1039485871       -7.7724389107       -7.4190427378
 H       -17.2961829568       -6.4793424299       -6.2096983388
 H       -18.0078059151       -7.9141930181       -6.0741923961
 H       -15.0806507675       -8.3457384819       -3.7745457072
 H       -16.8433515118       -7.9899481478       -3.8397443849
 H       -15.8226208583       -6.6957149636       -3.9553081292
 H       -11.6580885550      -10.1455739683       -4.2334069073
 H       -11.0062580383      -10.7546771893       -5.7187857889
 H       -10.5093072785      -11.3557032540       -4.1308382642
 H       -12.3630277355      -14.2543915924       -5.1813761114
 H       -10.9052269539      -13.6687014539       -4.4301623628
 H       -11.1139964024      -13.4808735487       -6.2470740677
 H       -15.8423346669      -12.4659502342        0.6226643068
 H       -15.8325709256      -14.3671287445        0.9361612125
 H       -17.3053013178      -13.3151433316        0.9127142761
 H       -17.6155757526      -15.1564431070       -2.2625617766
 H       -18.0108694199      -15.2797678097       -0.5362670518
 H       -16.4509382132      -15.9039797974       -1.2237286857
 Na      -16.1470579980      -12.4622192587       -4.5145472765
 Na        5.6167411552        3.2292067447      -14.2722373487
