232

 C       -13.8295407382       -0.4087853036        5.2390788904
 C       -15.0612701180       -0.5368981191        4.3899638103
 O       -14.9147733648       -0.4549919655        3.1688006311
 C       -16.5019199952       -0.6191369751        5.0435363472
 C       -17.5188672368       -1.0726381396        4.0268390490
 O       -17.7931424282       -0.3135277293        3.0680723318
 C       -18.0436835229       -2.5483667201        4.0244870820
 C       -18.8515395407       -2.9109998473        2.7358152987
 C       -17.9492445409       -3.0861905638        1.4970521175
 O       -16.7163484980       -3.1054948410        1.4842198322
 C       -18.6412492393       -3.1041400400        0.0776522769
 C       -18.0086742575       -1.8765429334       -0.6756554037
 O       -18.1712008824       -0.7775724625       -0.1697500570
 C       -17.3746535938       -2.1781802959       -2.0396930774
 C       -16.8439007410       -0.9397965751       -2.6241392874
 C       -15.4946622083       -0.5347909069       -2.0405584128
 O       -15.2311799805       -0.6624439362       -0.8166526080
 C       -14.4372209400        0.0700149303       -3.0242301693
 C       -13.8572553694       -1.0653599032       -4.1355969581
 O       -14.6137481485       -1.9544968062       -4.4448755630
 C       -12.4215825800       -0.9926667417       -4.6309695187
 C       -12.1729578908       -1.5068110347       -5.9863322160
 C       -10.6368734851       -1.8145428928       -6.0245439903
 O        -9.8432875512       -1.4285248419       -5.1560948438
 C       -10.0244961255       -2.6102011613       -7.3104499688
 C       -10.5828454643       -1.8124954396       -8.5316350522
 O       -10.7259637127       -0.5935315739       -8.3139636589
 C       -11.0774515380       -2.4399073726       -9.8063616608
 C       -11.1313959943       -1.4481795653      -10.9910876105
 C        -9.7999182621       -1.2826900096      -11.8195960585
 O        -8.8534127317       -2.0233488144      -11.7970247498
 C        -9.6714680301       -0.1555984855      -12.9065541448
 C        -8.9664022961        1.0174283047      -12.1440283099
 O        -9.6120119078        1.9865895433      -11.9117149865
 C        -7.4945036989        0.8374066794      -11.6984267847
 C        -7.1728625680        1.9138448725      -10.7423861070
 C        -5.6224040434        1.6059739552      -10.1970107222
 O        -5.1870005223        0.4735508061      -10.3254731383
 C        -4.7797833184        2.6569758697       -9.3634146026
 C        -3.2645592695        2.7366788798       -9.9552857833
 O        -2.7726227460        3.8016497814      -10.2866880033
 C        -2.3128374656        1.4704201467       -9.9826142479
 C        -0.8426725411        1.7569200886      -10.1511164132
 C        -0.0815582572        0.5083103093      -10.2698006852
 O        -0.4965941091       -0.4027285891      -10.9231839271
 C         1.1687216720        0.3048317485       -9.3374987627
 C         1.5666520514       -1.2389912811       -9.4636850151
 O         1.9717550282       -1.8097659646       -8.4332292039
 C         1.7016124005       -1.9486044428      -10.7578187421
 C         0.9016177588       -3.2752335076      -10.7579893684
 C         1.1517100170       -4.2128156832      -11.9679138627
 O         1.2256684849       -5.3977882544      -11.7523840722
 C         1.1173943138       -3.5856861850      -13.4101624054
 C         2.4779292586       -2.8410931387      -13.7700597573
 O         2.6407217219       -1.7054594149      -14.0998987375
 C         3.7915609813       -3.7201696290      -13.4867734809
 C         5.0112422079       -2.7216335075      -13.2775489288
 C         5.7392792145       -2.2118829800      -14.4835902099
 O         5.7835998362       -2.8817124577      -15.4609219309
 C         6.5432148577       -0.8320186840      -14.3744661318
 C         7.1967412705       -0.3049268767      -15.7426515036
 O         6.8157772645       -0.7084908844      -16.8097028781
 C         8.2400673746        0.8147959817      -15.6830715171
 C         9.1525549365        0.9358575518      -16.9769504275
 C         9.8030283363       -0.3528766699      -17.4934750178
 O         9.4559977043       -1.5020503537      -17.3004629735
 C        10.9801966689       -0.2637543043      -18.4374018908
 C        10.5625503257       -1.1212139506      -19.7566302143
 O        11.4023626461       -1.7744703764      -20.3445656075
 C         9.1163884702       -1.1119451760      -20.2111613683
 C         8.6906710957       -2.1034175695      -21.3766768046
 C         7.4136048717       -2.9975808677      -20.9029261164
 O         6.7902900568       -2.7796275347      -19.9178172869
 C         7.1288678520       -4.3263400882      -21.8175581439
 C         7.5312619886       -5.6773644917      -20.9603193554
 O         6.7269543919       -6.3725550427      -20.3852804189
 C         9.0742130560       -6.0419655812      -20.9581955365
 C         9.6010349498       -6.4508515854      -19.6113474086
 C         9.5448575544       -5.4011539853      -18.4466104406
 O         8.8155400312       -4.4517414984      -18.5711852241
 C        10.3365678110       -5.6645910916      -17.1445143086
 C         9.2520671532       -5.6019131884      -15.9440659314
 O         8.4076730922       -4.7466293100      -15.8725502071
 C         9.3072449292       -6.6808472032      -14.8638100501
 C        11.2890321181       -6.8553021258      -17.2586045394
 C        11.1143740309       -4.4300373966      -16.7842710905
 C         5.6666314687       -4.3414288853      -22.2279713432
 C         7.9053922080       -4.3235850567      -23.1238149053
 C        11.2614335248        1.1409568615      -19.0336278369
 C        12.2257085200       -0.8721092598      -17.8415338822
 C         5.6372984277        0.4429269955      -14.0019386168
 C         7.6203293881       -1.2019177500      -13.3311563631
 C         0.6553438844       -4.6930589829      -14.4093917284
 C        -0.0861557933       -2.5591203804      -13.4573652996
 C         2.4370511168        1.2440151667       -9.7300043180
 C         0.9721049359        0.6482192341       -7.8738954398
 C        -5.2784434149        4.1294476856       -9.4379417061
 C        -4.8517927060        2.1151904268       -7.9813515103
 C        -8.9688856902       -0.4952012111      -14.3565286999
 C       -11.1374395295        0.3770270102      -13.3213524067
 C        -8.4397054013       -2.4525814885       -7.3462474858
 C       -10.5267706422       -4.0493335584       -7.1631966521
 C       -15.2775100972        1.2537517860       -3.8534853423
 C       -13.2198894521        0.6126110395       -2.1757444312
 C       -18.2832652816       -4.4396980408       -0.5938638918
 C       -20.1965717033       -2.9072645721        0.0841439550
 C       -16.5010271133       -1.3548342613        6.3350085156
 C       -16.8420298634        0.9140822567        5.3225739656
 H       -13.1516517135        0.1075797040        4.5457826125
 H       -13.5056981968       -1.4811327473        5.4222326223
 H       -13.9669817442        0.0056695960        6.1957309523
 H       -18.6463959977       -2.7734861505        4.8617082381
 H       -17.1450763364       -3.2237585128        3.9705556307
 H       -19.7239997443       -2.2439033154        2.5520288173
 H       -19.3865226147       -3.8183124067        2.9606191990
 H       -18.2613095208       -2.5021783763       -2.6382591734
 H       -16.8158204830       -3.0701285520       -1.9094904398
 H       -17.4941768420       -0.0684040939       -2.5400507913
 H       -16.7065736994       -1.0486923321       -3.6755752625
 H       -11.7696978692       -1.6817171947       -3.9642461806
 H       -11.9564363597       -0.0137347624       -4.5164481196
 H       -12.4553979574       -0.7700394840       -6.7386645231
 H       -12.7343142089       -2.3897128367       -6.0973396132
 H       -12.0242032488       -2.8853266671       -9.6122332701
 H       -10.4049793733       -3.3328384011      -10.0132563955
 H       -11.6582402446       -0.5610641558      -10.6823329049
 H       -11.7044240284       -1.9358782931      -11.8593085522
 H        -6.9854361804        1.1309250833      -12.5889765035
 H        -7.3420137536       -0.1217164177      -11.1414757726
 H        -7.8816270927        1.8426064821       -9.8625396710
 H        -7.2911504901        2.9718928473      -11.0966323521
 H        -2.6639206563        0.8099061736      -10.7187090554
 H        -2.4037082643        1.1691557526       -8.9033892280
 H        -0.4442551863        2.3472690437       -9.3204877724
 H        -0.6694661102        2.3642265977      -11.0876598702
 H         2.7509983245       -2.3035770257      -10.8638284092
 H         1.4150701510       -1.2626257648      -11.5721424674
 H        -0.0981742763       -2.9660406907      -10.7210520011
 H         1.0142241365       -3.8005300839       -9.8116315640
 H         4.1809749967       -4.5510355602      -14.1870706653
 H         3.6743641071       -4.2951162390      -12.5537597068
 H         5.7120298842       -3.0917512086      -12.5375915975
 H         4.5221096562       -1.8090661124      -12.8222020920
 H         8.8052475716        0.9661380217      -14.7544914258
 H         7.6369372461        1.7516013179      -15.5834003864
 H         9.9799243029        1.5708514420      -16.7256070295
 H         8.4973465897        1.4384407347      -17.6959754069
 H         8.7520705675       -0.1247181451      -20.5013115440
 H         8.4798169304       -1.2299478653      -19.2807114040
 H         9.5222949918       -2.7573260685      -21.7160156033
 H         8.4600891000       -1.3319789102      -22.1356387992
 H         9.6912946352       -5.2182814714      -21.2641452405
 H         9.3008141559       -6.7767652388      -21.7597226221
 H        10.6267506016       -6.8970532668      -19.7590117614
 H         8.9244805793       -7.2623509612      -19.2187817948
 H        10.3089197072       -6.9251518738      -14.8056288959
 H         8.9054181875       -7.6726799650      -15.0388278734
 H         8.8619114550       -6.2525542765      -13.9597535373
 H        10.5550824908       -7.7091278011      -16.9811806094
 H        12.0730536240       -6.8589247205      -16.5178281813
 H        11.8319766350       -6.8982188178      -18.1607563824
 H        10.5560673382       -3.4781914690      -16.8275833965
 H        12.0160278937       -4.2781587784      -17.4628134582
 H        11.6214945431       -4.5204493979      -15.8228508461
 H         5.3141854099       -5.2574379194      -22.5774433215
 H         5.5183565475       -3.5010650502      -22.9520694021
 H         4.9660625652       -4.1430204276      -21.3859895475
 H         7.5361641268       -5.1464824906      -23.7250937763
 H         8.9388944824       -4.5392052813      -22.9647948730
 H         7.7180751319       -3.3804206141      -23.6541538120
 H        10.4710664963        1.4270062249      -19.7381491931
 H        12.2129523590        0.9877197818      -19.5073814558
 H        11.1820217549        2.0231059864      -18.4636157275
 H        12.5091939883       -0.3357399616      -16.8867425796
 H        13.0410083013       -1.0042436436      -18.5786139711
 H        12.0498294906       -1.9051045744      -17.5208540029
 H         5.1009647194        0.1420132803      -13.1441253660
 H         4.8765305793        0.6915039771      -14.6558875810
 H         6.1820312848        1.3685275486      -13.7883897173
 H         8.2054470596       -2.1156978864      -13.5507693413
 H         7.2610165841       -1.3778613718      -12.3146613974
 H         8.2103351529       -0.3768904570      -13.3657641597
 H        -0.4648053548       -4.8141807893      -14.4214910275
 H         1.0657319304       -5.6514583796      -14.1887281955
 H         0.9052025140       -4.4119900968      -15.4295372585
 H        -1.0347235149       -3.0273131504      -13.0782102134
 H        -0.4321753506       -2.1710657524      -14.4621434941
 H         0.2759695134       -1.7248506767      -12.8781666958
 H         2.9430377499        1.5523982453       -8.8532588005
 H         2.1135900126        2.1932833445      -10.1212939264
 H         3.0696310461        0.7608421179      -10.4587170714
 H         1.8289365379        0.7023794035       -7.2172076093
 H         0.1296317691        0.0774741625       -7.5364850449
 H         0.6371677239        1.7216296981       -7.8235512329
 H        -5.4179453503        4.5417010611      -10.4212540720
 H        -4.5797603702        4.6589053886       -8.8488690541
 H        -6.1928267783        4.0810694713       -8.8374027492
 H        -5.9261718933        1.8245753288       -7.8209601064
 H        -4.6945731372        2.8830894177       -7.1429388733
 H        -4.2075202940        1.2694449172       -7.7870942336
 H        -8.2920834636       -1.3333675922      -14.3410057918
 H        -8.3430495823        0.2918480701      -14.6846425948
 H        -9.8007690855       -0.5644631393      -15.0650378363
 H       -11.4927856988       -0.3835270707      -14.0642927252
 H       -11.1453146640        1.3653755647      -13.7602710753
 H       -11.7781334288        0.4142906182      -12.4584609703
 H        -8.1296423193       -1.3820925843       -7.4110959566
 H        -7.8907057656       -3.0415106607       -8.0913158904
 H        -8.0742407243       -2.7861701473       -6.3988598429
 H       -10.2087602007       -4.4637839231       -6.2479699895
 H       -10.2524234922       -4.8315965974       -7.9430329848
 H       -11.6307040112       -4.0216010679       -7.2497572164
 H       -15.5680146327        1.9981189057       -3.0979830662
 H       -16.1391978738        0.6896746351       -4.3633631586
 H       -14.6787108123        1.8068310171       -4.5370348331
 H       -13.5510734779        1.4447668533       -1.5806264078
 H       -12.3720055078        1.0366790391       -2.7931766686
 H       -12.6852369954       -0.0332392425       -1.4906394577
 H       -19.0461537781       -5.2257413056       -0.3009704292
 H       -17.3267808208       -4.7930896809       -0.3273205705
 H       -18.4472315154       -4.3212608147       -1.7140678593
 H       -20.7305717486       -3.6318220751        0.8119745158
 H       -20.6651743479       -3.0384142174       -0.9213130253
 H       -20.3420576173       -1.8597573644        0.3766167205
 H       -15.9486213744       -2.3095192265        6.2519805654
 H       -17.4562208235       -1.3994003298        6.8196527847
 H       -16.0709251589       -0.7534919495        7.1958567825
 H       -16.1762013249        1.2346381788        6.1247015724
 H       -17.8342336285        0.9198294480        5.8168565311
 H       -16.7921583796        1.5893941280        4.4959300108
 Na      -16.3236266013       -0.4118389836        1.3001500911
 Na        7.4953655925       -2.9033663207      -17.3452633181
