232

 C       -13.9299457061       -0.2106871259        5.2149082237
 C       -15.1535892571       -0.3546869155        4.2473845900
 O       -14.9218098719       -0.2139653985        3.0477327360
 C       -16.6005787549       -0.3911401557        4.9363726871
 C       -17.5803444911       -1.1198755964        3.9210036152
 O       -18.0352842784       -0.4873218904        2.9504054710
 C       -18.0318373034       -2.5784929889        4.1400632195
 C       -18.7880132450       -3.0647122126        2.9183424543
 C       -18.0225748961       -2.8980717412        1.6445065996
 O       -16.8062003884       -2.7072643657        1.6735896626
 C       -18.6271552846       -3.1953217084        0.2115788914
 C       -17.9679367354       -2.0831753053       -0.6747096509
 O       -18.0394457670       -0.9172625411       -0.2966143957
 C       -17.2867085971       -2.1383945852       -2.1138626773
 C       -16.8413397163       -0.8138113651       -2.6033326327
 C       -15.5095249564       -0.2915963839       -1.9958257118
 O       -15.2858486332       -0.3394556426       -0.7966259056
 C       -14.3307104871        0.0625923165       -2.9221315937
 C       -13.9674809609       -1.0932031283       -3.9689826898
 O       -14.7884127779       -1.8876669368       -4.3561780645
 C       -12.4861147404       -1.1824447500       -4.3312457902
 C       -12.2306755478       -2.0426599428       -5.6006283315
 C       -10.7600357028       -2.0779023768       -5.9162355310
 O        -9.8479640394       -1.5877217052       -5.2025179993
 C       -10.2892417725       -2.7381880379       -7.3486694571
 C       -10.7094127460       -1.8954177569       -8.5817055448
 O       -10.8084538393       -0.6670576055       -8.4933565599
 C       -10.8526651064       -2.4761786393       -9.9617278748
 C       -11.1815803629       -1.4798269777      -10.9901837812
 C        -9.9464691394       -1.2529723092      -11.8102454724
 O        -9.1348635967       -2.1473999372      -11.8480810539
 C        -9.6581266084        0.0625278689      -12.7757337597
 C        -9.0616112612        1.2487791314      -11.9355812391
 O        -9.8871029778        1.8792531623      -11.3765711424
 C        -7.5969188111        0.9375058216      -11.6528806111
 C        -6.7695199962        2.1450130737      -11.0603450264
 C        -5.6935115780        1.6356343041      -10.0810573870
 O        -5.4495253624        0.4274011959      -10.0850915138
 C        -4.8798664162        2.6911076698       -9.3355443835
 C        -3.4223342413        2.8163873134      -10.0246789463
 O        -3.0249363013        3.9080674688      -10.3074575534
 C        -2.4569975895        1.5285650189       -9.8533440866
 C        -0.9524645256        1.7592684335       -9.7931677496
 C        -0.1688951387        0.4816890823      -10.1254379434
 O        -0.4052917024       -0.2311440374      -11.0616929384
 C         1.2071373778        0.2930175237       -9.2851009491
 C         1.6987778936       -1.2562098291       -9.3412287906
 O         2.1346395058       -1.6764293414       -8.2763897443
 C         1.9068189211       -2.0418408017      -10.6524149836
 C         0.7137062776       -2.9632771430      -10.8411319454
 C         1.0530878119       -3.9327171235      -11.9027850138
 O         1.0931907139       -5.0949691664      -11.6143224301
 C         1.2769355129       -3.4612387852      -13.5025137750
 C         2.6368688228       -2.7707614541      -13.8180959858
 O         2.6825129577       -1.6885859691      -14.3314053384
 C         3.8304087133       -3.5248659678      -13.2919095785
 C         5.1204983437       -2.5811149373      -13.1689710338
 C         5.8083920077       -2.1851446525      -14.5525474332
 O         5.9536429632       -2.9160265824      -15.4910963207
 C         6.4779105501       -0.6209628825      -14.5167248772
 C         7.2103331727       -0.2931080065      -15.8262771583
 O         6.8289937093       -0.8137742345      -16.8401847106
 C         8.4639001596        0.6374029782      -15.7681839902
 C         9.1661628567        0.8071845645      -17.1854383765
 C         9.9391343695       -0.4739569289      -17.4854481057
 O         9.7927923389       -1.4411120246      -16.7833730262
 C        11.0367431871       -0.4078108109      -18.6433621090
 C        10.5343628259       -1.4666964747      -19.7566465272
 O        11.2280887563       -2.4706561948      -19.9334883291
 C         9.1430179523       -1.0734381352      -20.5633179842
 C         8.8940337525       -2.2602209854      -21.4250574070
 C         7.7620787429       -3.1202993172      -20.9675511376
 O         7.2380835521       -2.9484544761      -19.8946524996
 C         7.2701141676       -4.2824072267      -21.9716252164
 C         7.6790030665       -5.5712162931      -21.0269311214
 O         6.8110596025       -6.1212166109      -20.4000332709
 C         9.1028101712       -6.0440882984      -21.0391314719
 C         9.5738607661       -6.6784300888      -19.6154806934
 C         9.5058200058       -5.5215664269      -18.6032779790
 O         8.9263374422       -4.4867899128      -18.6871506126
 C        10.3107716167       -5.6569059361      -17.1121314078
 C         9.0865309449       -5.8014191170      -16.0125435928
 O         8.2513731933       -4.9271027419      -15.9097286809
 C         9.1698076385       -6.8546592942      -15.0072616499
 C        11.3481593946       -6.8113720397      -17.1329398197
 C        11.0906714550       -4.3662191910      -17.0969011942
 C         5.7521932664       -4.2039863683      -22.1032661951
 C         7.9884624741       -4.3565184555      -23.3285765070
 C        11.0885133107        0.9495097661      -19.3609942176
 C        12.3517293739       -0.8904258180      -17.9747949716
 C         5.2594355578        0.3880598202      -14.4646176245
 C         7.4078738515       -0.3982183155      -13.1890557233
 C         1.2594166617       -4.7630932084      -14.3203956730
 C         0.1060973756       -2.5191120760      -13.8728080232
 C         2.2484298305        1.1230174106      -10.0817301073
 C         1.0254907448        0.6444219467       -7.7450103767
 C        -5.5634650114        4.0862329130       -9.3340230741
 C        -4.5861422025        2.2512431577       -7.8499554174
 C        -8.8202153012       -0.3865604707      -13.9834630597
 C       -11.0800541400        0.3512720247      -13.3041155128
 C        -8.7129774146       -2.8112658512       -7.3445264968
 C       -10.8765604861       -4.1494760744       -7.4934428767
 C       -14.7010056050        1.2383831526       -4.0227192308
 C       -13.0465509681        0.4282606036       -1.9881919261
 C       -18.1966341527       -4.5553220049       -0.2222512719
 C       -20.1704604449       -3.1728109384        0.2598243971
 C       -16.4750456493       -1.3590312937        6.2253829630
 C       -17.0446638254        1.0316494368        5.4122848895
 H       -13.3411522832        0.6335171774        4.8602620282
 H       -13.3826868845       -1.1631486282        5.3143223748
 H       -14.3119544443        0.0411799807        6.1955095501
 H       -18.7301196889       -2.6668477461        4.9954443019
 H       -17.1007358942       -3.1300910118        4.2831542013
 H       -19.7323149927       -2.5103828972        2.9361142874
 H       -19.1841930458       -4.1191512595        3.0014778725
 H       -18.1897712358       -2.4540273039       -2.6985398753
 H       -16.5393079837       -2.9667911315       -2.1857159705
 H       -17.5927065432        0.0231228206       -2.4360896225
 H       -16.6480317814       -0.7961206137       -3.6680734810
 H       -11.8657623019       -1.5135085509       -3.4743338464
 H       -12.1418107838       -0.2187842560       -4.6709314018
 H       -12.7633680197       -1.5347782627       -6.4188825019
 H       -12.6115274059       -3.0844383349       -5.5377071928
 H       -11.5456296019       -3.2894908233      -10.1694372963
 H        -9.8138863078       -2.8765781280      -10.2330133084
 H       -11.4790578430       -0.5048068506      -10.5995044842
 H       -11.9920003747       -1.8115631789      -11.6278180170
 H        -7.1352975838        0.8377217854      -12.6010227124
 H        -7.7410595916        0.1776809597      -10.9560058039
 H        -7.3070064367        3.0004945886      -10.6120580979
 H        -6.1931946518        2.5210327682      -11.8848061183
 H        -2.6701290687        1.0493762566      -10.8003966695
 H        -2.8074852718        1.0315234379       -8.9063190414
 H        -0.7123238248        2.0032052590       -8.8198231430
 H        -0.6469033543        2.6448666989      -10.3936501786
 H         2.6994080798       -2.7375362534      -10.5714905696
 H         1.8624561779       -1.3175367226      -11.4741014505
 H        -0.2011191728       -2.3254485871      -11.0084283983
 H         0.3841751530       -3.5086503794       -9.9229563742
 H         3.9768796880       -4.2717795676      -14.0493670710
 H         3.7269491526       -4.1819743889      -12.4831377829
 H         5.9186681463       -3.1074308447      -12.6290446029
 H         4.7586836648       -1.7551711136      -12.5564278130
 H         9.2476604091        0.2207250307      -15.0919586375
 H         8.2355764884        1.6179855846      -15.2905828417
 H         9.6875101206        1.7684281537      -17.0850114971
 H         8.3380406752        0.8631372176      -17.9502041882
 H         9.3599467077       -0.1478427422      -21.0655364503
 H         8.2570683834       -0.8691097883      -20.0435426622
 H         9.8163056210       -2.8134311672      -21.4721969260
 H         8.6133209603       -1.9348846012      -22.4313587504
 H         9.8002758570       -5.2607323740      -21.2690844598
 H         9.1651366977       -6.8585163570      -21.8255575570
 H        10.5967708456       -6.9565884109      -19.7042518490
 H         8.9623021517       -7.5208726730      -19.2660561581
 H        10.1469333406       -6.6509240767      -14.5624598210
 H         9.3013333991       -7.8615126046      -15.3848348598
 H         8.1916449604       -6.8892944788      -14.4210476826
 H        10.9588793617       -7.6761286616      -17.7860054018
 H        11.7619271451       -7.0679223527      -16.1397917548
 H        12.1476559243       -6.4134146355      -17.6375295868
 H        10.4452760060       -3.5300458454      -17.1408710007
 H        11.7942465335       -4.2642977466      -17.9409277702
 H        11.7015971120       -4.2408333884      -16.2539888843
 H         5.3704243408       -5.1158317603      -22.5262869286
 H         5.4577396519       -3.2792157339      -22.6048598297
 H         5.2303182314       -4.1477230517      -21.1684290165
 H         7.9174677589       -5.4069988777      -23.7485118660
 H         9.0536201952       -4.2502585160      -23.1949233347
 H         7.4718168856       -3.6446060251      -23.9395333446
 H        10.1568242615        1.5605504965      -19.1887708458
 H        11.3715198729        0.8957602565      -20.3825528677
 H        11.7767418380        1.5813016663      -18.7575581805
 H        12.5557942335       -0.4741104247      -17.0161989825
 H        13.1381123226       -0.5499776036      -18.5935386501
 H        12.4815475340       -1.9729172248      -17.9898906466
 H         4.5647637016        0.2256480471      -13.6013497420
 H         4.6108973758        0.2108039625      -15.3429462443
 H         5.5047487311        1.4588574742      -14.5708298143
 H         8.3811811673       -0.9879483299      -13.2420264437
 H         6.9652707027       -0.8858511175      -12.3073982782
 H         7.5785451901        0.6526203637      -13.0114672679
 H         0.4296696292       -5.3546387285      -13.9345080769
 H         2.1926927902       -5.2760696354      -14.3394930754
 H         1.0081449158       -4.6312207467      -15.4002263710
 H        -0.8498073818       -3.0217206468      -13.8286178712
 H         0.2438154645       -2.1996194473      -14.9166024362
 H         0.1321178384       -1.6375551351      -13.3395148683
 H         3.2381310708        0.6391341575      -10.3064860581
 H         2.5817945445        2.0245799560       -9.5013210407
 H         1.8148235663        1.4463706880      -11.0394956162
 H         2.0095984892        0.5385967905       -7.3584094493
 H         0.2285072966        0.2231370115       -7.1386828455
 H         0.8079207594        1.7550328206       -7.5787939838
 H        -5.5279832156        4.2966106841      -10.4469990102
 H        -4.8921667703        4.7781590848       -8.8788126724
 H        -6.6408757490        4.1325752562       -9.0251456359
 H        -5.3378262807        2.5722256564       -7.1519782075
 H        -3.6296479902        2.5985647299       -7.5500594880
 H        -4.5704888983        1.1762003719       -7.7923235647
 H        -7.7396946601       -0.4467875858      -13.9376343054
 H        -8.9096061565        0.4996837438      -14.6703318538
 H        -9.2532565263       -1.2698031283      -14.4713489159
 H       -11.5320340428       -0.5920122859      -13.6850237585
 H       -11.0468513915        1.0095012226      -14.1793179838
 H       -11.6145176017        0.7283512753      -12.4961980518
 H        -8.4163199663       -1.7782884725       -7.4382390519
 H        -8.2236680689       -3.3406473355       -8.1931272692
 H        -8.3234968973       -3.2785360838       -6.4237650295
 H       -10.5694450960       -4.7781871555       -6.6907203505
 H       -10.6114730671       -4.7250514956       -8.3801859757
 H       -11.9758789506       -4.1498040423       -7.5022071104
 H       -15.1825939154        2.0309446314       -3.4846141360
 H       -15.4492163867        0.8284428091       -4.8123330789
 H       -13.8141312551        1.6088983263       -4.5157609118
 H       -13.2342354147        0.9962312293       -1.0731371751
 H       -12.3129500171        1.0760779465       -2.4583242355
 H       -12.5188467523       -0.4234016379       -1.6396664630
 H       -18.3480594115       -5.3883938952        0.4248895836
 H       -17.1926775742       -4.4287542770       -0.5233548861
 H       -18.7706032916       -4.8535721804       -1.1633712446
 H       -20.4766000697       -4.1027510388        0.6839802419
 H       -20.4971068439       -3.1770545737       -0.7814855007
 H       -20.5864733236       -2.3725350949        0.7597811696
 H       -16.0209918218       -2.3158180616        6.0371129570
 H       -17.3702534743       -1.3749869375        6.7585774130
 H       -15.8113930858       -0.8451576953        6.9626145482
 H       -16.2140556851        1.4882817143        5.9535358727
 H       -17.9644132458        0.9469095501        5.9675592698
 H       -17.3380987039        1.6571706842        4.5333093843
 Na      -16.4626920417        0.0806171450        1.1116189379
 Na        7.4760365772       -3.1831264030      -17.3989751811
