232

 C       -13.9909253347       -0.0540377261        4.9918661043
 C       -15.2176877844       -0.2415625566        4.1499138494
 O       -15.1934063873        0.1999957177        3.0094396057
 C       -16.6324623389       -0.4538376183        4.8933634445
 C       -17.6444304804       -1.0930369582        3.8981944553
 O       -18.0589324509       -0.3856283918        3.0264004725
 C       -18.1180698445       -2.5273048031        4.1598669392
 C       -18.7262877946       -3.1184625193        2.8943713319
 C       -17.8788840550       -2.8342414490        1.6841732895
 O       -16.7624803755       -2.3635160426        1.7520729629
 C       -18.4656257000       -3.1516659397        0.2750555421
 C       -18.0575105543       -1.9394006224       -0.5976051303
 O       -18.3697664563       -0.8109631251       -0.2319646527
 C       -17.3164188226       -2.1334107796       -1.9524892100
 C       -16.8486789075       -0.8049251778       -2.6414409205
 C       -15.4598006377       -0.3094141752       -2.0068857783
 O       -15.4324043672       -0.0080251678       -0.8322917411
 C       -14.1341075179        0.0097595322       -2.8843029549
 C       -13.8658165365       -1.2441378187       -3.8527876396
 O       -14.7676659413       -1.9202653795       -4.3215391855
 C       -12.4173325762       -1.3611004300       -4.3214186435
 C       -12.2961027464       -2.4228229473       -5.3945615253
 C       -10.7168243311       -2.3189743254       -5.9622969975
 O        -9.9101455791       -1.7966562763       -5.2511649645
 C       -10.4415518305       -2.8861463585       -7.4098765301
 C       -10.8520933328       -1.8468412952       -8.4996047518
 O       -10.8899109784       -0.6910829755       -8.2227176067
 C       -10.9980100774       -2.4882209333       -9.8253652645
 C       -11.1335262274       -1.4557208133      -11.0174983364
 C        -9.8294645555       -1.3358430168      -12.0213456589
 O        -8.9250623852       -2.1587807803      -12.1160971963
 C        -9.7861025646        0.0237925490      -12.8013839672
 C        -9.0227540922        1.0407129278      -11.7701872251
 O        -9.6783934282        1.8713042174      -11.1456224961
 C        -7.4522994389        0.7922356857      -11.5524667017
 C        -6.8706879454        2.0721694193      -11.0736955682
 C        -5.7348307282        1.8048928508      -10.0545606550
 O        -5.4900608767        0.6641277764       -9.7954585940
 C        -4.7999001548        2.8277578289       -9.2035443662
 C        -3.4581926603        2.7927219559       -9.9120031541
 O        -3.0076170137        3.7481973922      -10.4759585140
 C        -2.7217330856        1.4240630258      -10.1074928749
 C        -1.2508830765        1.6079525903       -9.4748290722
 C        -0.2116225232        0.5718204727       -9.9968349516
 O        -0.5503271432       -0.0327883181      -11.0352533850
 C         1.1954410086        0.3972611799       -9.2836970988
 C         1.7333747149       -1.1679298585       -9.2156062996
 O         2.0590711817       -1.6095594298       -8.1658170516
 C         2.1043038121       -1.9151173801      -10.5998357239
 C         0.8798840978       -2.7451248797      -11.1059304683
 C         1.1968031254       -3.8099445041      -12.1147883428
 O         1.1857349657       -4.9663265733      -11.7796052392
 C         1.3261466687       -3.4352009934      -13.6794107840
 C         2.6717432806       -2.7142915059      -13.7705301686
 O         2.7576402390       -1.5583538363      -14.2316968106
 C         4.0182905741       -3.4563928602      -13.2518954522
 C         5.2881525423       -2.5032504275      -13.0508460468
 C         5.9431118701       -2.1220985176      -14.4858288046
 O         6.1576438015       -2.8940555611      -15.3761969516
 C         6.3071625949       -0.5160732207      -14.6124853806
 C         7.2278014947       -0.3820320320      -15.8961393346
 O         6.8772063130       -0.8969578522      -16.9692048617
 C         8.4358151587        0.5501194774      -15.7614532752
 C         9.1538802223        0.6618473178      -17.1962067256
 C        10.0564205858       -0.5413281409      -17.4685796694
 O        10.1183440361       -1.5035826279      -16.7095583650
 C        11.0519987031       -0.4856342241      -18.7352806006
 C        10.5909755725       -1.6738426045      -19.6711809823
 O        10.9883263115       -2.7852222924      -19.5096246421
 C         9.5133897223       -1.1397334384      -20.7793070430
 C         8.8133799741       -2.1831125823      -21.7086315372
 C         7.8644625553       -3.1314397968      -21.0478709994
 O         7.3224545828       -2.8074443023      -19.9936840509
 C         7.3181344718       -4.3656944765      -21.8613462970
 C         7.7249245476       -5.6236875733      -21.0494053384
 O         6.9100496928       -6.1792113335      -20.3166696256
 C         9.1822654364       -6.2294899205      -21.0778652858
 C         9.4713660641       -6.8558902001      -19.7046390563
 C         9.5288924169       -5.6224619825      -18.6411044329
 O         8.8787762469       -4.6210900742      -18.8885595902
 C        10.2803059341       -5.7869772218      -17.1825457123
 C         9.1359823928       -5.8668755820      -16.1708685555
 O         8.3248372986       -4.9705433321      -16.1368210566
 C         9.0957757717       -6.9190634949      -15.1072029580
 C        11.3120180842       -7.0347841421      -17.1077036753
 C        10.9956396689       -4.4196456510      -16.8648141109
 C         5.7610883165       -4.3831803024      -21.9449588006
 C         7.8947278847       -4.3217959462      -23.3421296601
 C        11.1497081273        0.9640258046      -19.3220713941
 C        12.4938183120       -0.7478450021      -18.1498837801
 C         4.9669468069        0.2485615328      -14.8620645877
 C         6.9724488363       -0.0475624918      -13.2832390887
 C         1.4677014849       -4.8164456777      -14.3903762287
 C         0.0990680207       -2.7124527136      -14.2108937034
 C         2.2672844588        1.3200605393      -10.1598311441
 C         1.1284744761        0.9725010739       -7.7793824743
 C        -5.5287664088        4.2129261828       -9.1663843557
 C        -4.7811852450        2.2782459076       -7.6966318183
 C        -8.9310884993       -0.3676516785      -14.0071005526
 C       -11.1255215482        0.6787798726      -13.2657421794
 C        -8.9070843108       -3.0582158226       -7.4892597907
 C       -11.1508396138       -4.2888695371       -7.5241884830
 C       -14.5513162080        1.2479421548       -3.7656253638
 C       -13.0035952954        0.5127602251       -1.9340908698
 C       -17.8867350442       -4.5604174643       -0.1966618073
 C       -20.0161983023       -3.2174943332        0.2664879227
 C       -16.4038870642       -1.2537158060        6.2011930937
 C       -17.2264436487        0.9306204798        5.2037206632
 H       -13.2016931404        0.2938919499        4.3256869385
 H       -13.7331540244       -0.9404691957        5.5321031532
 H       -14.2273979414        0.8298098359        5.6613188935
 H       -18.8999116813       -2.2970397726        4.8787147543
 H       -17.4161187447       -3.2632729372        4.5575110520
 H       -19.7022802792       -2.6323305002        2.7058546872
 H       -19.0131812372       -4.1475999572        3.0365990566
 H       -18.0967364076       -2.6286660458       -2.5268464575
 H       -16.5413516630       -2.8672278618       -1.7907193536
 H       -17.5141459632        0.0100891584       -2.6164380459
 H       -16.5746673375       -0.9619400557       -3.6997901730
 H       -11.7754839697       -1.7499100966       -3.5131382800
 H       -11.9726742353       -0.4004239120       -4.7147872368
 H       -13.0589846348       -2.2540100620       -6.1535977117
 H       -12.6226413386       -3.3287191105       -4.9042915747
 H       -12.0063755066       -2.9421163172       -9.8048038077
 H       -10.2849433668       -3.2374325337      -10.1182736066
 H       -11.2981289659       -0.4196582907      -10.7116479571
 H       -11.9966313215       -1.6126173898      -11.6867226521
 H        -6.9759359981        0.7256276246      -12.5429155542
 H        -7.3648907803        0.0404259750      -10.7265586028
 H        -7.6480228908        2.6041299838      -10.5055776023
 H        -6.4882995875        2.7101295015      -11.9360035881
 H        -2.6507531618        1.0920872861      -11.1842132736
 H        -3.2267752103        0.8240855610       -9.4297553327
 H        -1.3059403692        1.6813239102       -8.3211733776
 H        -0.7542257532        2.5318666446       -9.7626597745
 H         2.9026428523       -2.6341508264      -10.3597843976
 H         2.2020467279       -1.2017192691      -11.3811735790
 H         0.2820883659       -1.9837889887      -11.5602120340
 H         0.2380389611       -3.1503360361      -10.3801440357
 H         4.3647371193       -4.2139558358      -14.0078566203
 H         3.9205210022       -4.2297020636      -12.4163414963
 H         6.0611443214       -3.0994895840      -12.5328194723
 H         4.9395242793       -1.6877595697      -12.4278028459
 H         9.0027554275       -0.0076674025      -14.9830848707
 H         8.0966668823        1.5201310066      -15.3511026964
 H         9.7294621162        1.5739856514      -17.1904294388
 H         8.2701644564        0.6905614774      -17.7920079498
 H        10.1607107501       -0.4049196094      -21.3018275856
 H         8.7395986378       -0.4842080942      -20.2980168771
 H         9.7223299283       -2.6500644236      -22.1662159182
 H         8.2369046463       -1.7410819755      -22.5396228166
 H         9.8935478519       -5.3721026782      -21.1059426139
 H         9.3905607446       -6.9914526032      -21.7860505717
 H        10.4687516208       -7.3602913470      -19.8470008579
 H         8.6494202948       -7.5466418828      -19.4497701193
 H         9.8217580249       -6.6997648556      -14.3291415234
 H         9.2588717985       -7.9389664081      -15.4031018141
 H         8.0949283595       -6.9708452642      -14.8696283213
 H        11.3685040149       -7.5431183161      -18.0018819424
 H        11.0783424800       -7.5420213036      -16.1701835815
 H        12.3796280892       -6.5756829125      -17.0313370231
 H        10.3139767221       -3.5270452092      -16.7625050634
 H        11.6051661318       -4.1822930131      -17.7431441185
 H        11.7219495185       -4.3568509630      -15.9681099801
 H         5.4753723813       -5.1270121268      -22.7480899362
 H         5.3240075393       -3.4179871322      -22.1011196221
 H         5.2733136802       -4.7131673333      -21.0318663301
 H         7.2894106707       -5.0116804102      -23.8726304483
 H         8.9491524128       -4.6331913173      -23.3738057282
 H         7.6524402659       -3.3267962890      -23.7138929820
 H        10.3958551500        1.1573710971      -20.0567899391
 H        12.0789350277        0.8932936591      -19.9216639243
 H        11.3105491030        1.7328919580      -18.5484944557
 H        12.9309820326        0.2257057657      -17.8978738571
 H        13.2766201155       -1.0866703882      -18.8550132476
 H        12.5488405416       -1.4171661487      -17.2701254078
 H         4.4387708974        0.2570551701      -13.9564928489
 H         4.3290831684       -0.1483342303      -15.6581283811
 H         5.1181562057        1.2541327596      -15.1274212031
 H         7.8015655066       -0.6225465812      -13.0576209964
 H         6.3385574204       -0.0832221467      -12.4117074786
 H         7.2121391999        1.0356574100      -13.3930293324
 H         0.5182303828       -5.2842844736      -14.3975851898
 H         2.2774476801       -5.4521864462      -13.9746459469
 H         1.8093188931       -4.7247823259      -15.3980138617
 H        -0.6993888343       -3.4865890717      -14.0670682494
 H         0.2056062937       -2.4521962174      -15.2729292981
 H        -0.3094839238       -1.7623610610      -13.6878340645
 H         2.9589669140        0.6071298406      -10.6268026843
 H         2.9002440875        1.9213894627       -9.5196136716
 H         1.8932897333        1.9157775450      -11.0073090348
 H         1.9989478168        0.5385232340       -7.2235317000
 H         0.2121245931        0.6307393123       -7.2422653458
 H         1.0203228329        2.0186331606       -7.6285869650
 H        -5.4429760099        4.6513360290      -10.1421947331
 H        -5.0287766106        4.9007034722       -8.4365955263
 H        -6.5794510972        4.0466500787       -8.9811286028
 H        -5.4865375373        2.7602101640       -6.9906577817
 H        -3.7281894859        2.4027775555       -7.3510397896
 H        -5.0420783046        1.1702297453       -7.6292545674
 H        -7.9226119715       -0.7411215403      -13.7624484369
 H        -8.7137248187        0.4240822541      -14.6927634596
 H        -9.3825781884       -1.2511816577      -14.4480220827
 H       -11.8503284350       -0.0626322856      -13.4727837522
 H       -10.8727971072        1.0272420436      -14.2493591420
 H       -11.5628202822        1.4369478863      -12.5625857548
 H        -8.3791822395       -2.1899709971       -7.0857803194
 H        -8.5582631512       -3.1307755811       -8.5102950794
 H        -8.6843506741       -4.0215327668       -7.0064029239
 H       -11.3322927980       -4.8806902472       -6.5545401364
 H       -10.5444008325       -4.9259141998       -8.1760036986
 H       -12.1579115171       -4.3050144928       -7.9736225221
 H       -14.3994822759        2.2197912959       -3.2464236748
 H       -15.5597561496        1.1724237803       -4.1315996726
 H       -13.8540699842        1.1750652420       -4.6812576160
 H       -13.2249393242        1.4667703891       -1.4528932264
 H       -12.0755030716        0.7431890434       -2.4072479619
 H       -12.8106410887       -0.1607553809       -1.0716344607
 H       -18.1682154936       -5.3157160225        0.5654258769
 H       -16.7427356240       -4.4740198090       -0.3477038772
 H       -18.2927550371       -4.9709845815       -1.0954323953
 H       -20.3877710556       -3.8996619739        1.0572296513
 H       -20.3245741842       -3.5352810071       -0.7546396043
 H       -20.3411387717       -2.1357578381        0.5227061165
 H       -15.6523570476       -2.0578853048        5.9431439187
 H       -17.3921022917       -1.8065690069        6.5047028340
 H       -15.9606692876       -0.6792125069        7.0329643323
 H       -16.4903482791        1.5190383870        5.6896506947
 H       -18.2159533727        0.8981194213        5.5947503470
 H       -17.4393439761        1.3187645374        4.2210998277
 Na      -16.5932397868       -0.1247285500        1.2842511428
 Na        7.5437618598       -3.0851093160      -17.4049807347
