232

 C       -13.9786733325       -0.0153002371        4.9414752416
 C       -15.2680879600        0.0282521463        4.1558693241
 O       -15.3062759761        0.3604522087        2.9594987950
 C       -16.5672102165       -0.4384763611        4.8825945662
 C       -17.7088061633       -1.0807345829        3.9616253471
 O       -18.1910620217       -0.3834569890        3.0697171049
 C       -18.1177458629       -2.4758866225        4.2186987168
 C       -18.6883562525       -3.1352043511        2.9221623165
 C       -17.8590020018       -2.8465567281        1.7254822543
 O       -16.6873498904       -2.4151415989        1.8273925725
 C       -18.4319562917       -3.1067626092        0.2855912293
 C       -18.0083915149       -1.8353505026       -0.5981671828
 O       -18.6316186909       -0.8143168111       -0.2454807269
 C       -17.2243839563       -2.0186995890       -1.9124160237
 C       -16.6787972310       -0.8288387456       -2.6357372932
 C       -15.4871927110       -0.2171114425       -1.9568967974
 O       -15.4928946900        0.0845355766       -0.7877108193
 C       -14.2427085075        0.0103149676       -2.8552435533
 C       -13.8951584945       -1.2073661231       -3.8341928311
 O       -14.7217769279       -1.9950709210       -4.2363644079
 C       -12.3941265096       -1.4471204016       -4.2371123233
 C       -12.1555850913       -2.5274021956       -5.3590779026
 C       -10.7827231254       -2.4408544209       -5.8767633146
 O        -9.9060326344       -1.8609355685       -5.2294681080
 C       -10.4798796050       -3.0636198265       -7.2864993533
 C       -10.9426128785       -1.8997480795       -8.4223610134
 O       -10.9950268987       -0.7054136188       -8.1806929122
 C       -11.1472073493       -2.4671608896       -9.9363066524
 C       -11.0662770586       -1.3641002426      -11.0588162823
 C        -9.8670624483       -1.2820206725      -11.9209233215
 O        -9.0209824985       -2.1280588236      -12.1071205920
 C        -9.6933212836       -0.0099393001      -12.8558482829
 C        -8.9139828832        0.9756129082      -11.8585355530
 O        -9.5660963576        1.6966893410      -11.1877507282
 C        -7.4712022756        0.7804694106      -11.5564218949
 C        -6.9142676871        2.0578234165      -10.8861849635
 C        -5.8179678374        1.7561126470       -9.8712945153
 O        -5.4509520714        0.5937062251       -9.6538561969
 C        -5.0024530684        2.8263690183       -9.1376007261
 C        -3.5109511713        2.7761832512      -10.0117012343
 O        -2.9947472560        3.7282358065      -10.5102454202
 C        -2.6903786280        1.4002078999      -10.0583497858
 C        -1.3370406550        1.5810663203       -9.2786714866
 C        -0.2372231485        0.6680059284       -9.9535845137
 O        -0.4382301950        0.0126600058      -10.9502886997
 C         1.1367017035        0.4532965082       -9.2719856975
 C         1.7242044594       -0.9433524664       -9.2898660322
 O         1.9110184370       -1.5385411951       -8.2342368535
 C         2.1195363025       -1.7947994903      -10.5827764626
 C         0.8929040463       -2.5819439413      -11.1671680218
 C         1.1794471767       -3.8306227065      -12.1745871763
 O         1.2982939733       -4.9529487067      -11.7584393363
 C         1.4220351139       -3.5376835081      -13.6856778879
 C         2.7625445548       -2.6975327424      -13.7898558430
 O         2.7211401786       -1.5349550059      -14.1116417061
 C         3.9542830326       -3.4459030737      -13.3717832988
 C         5.1962741779       -2.5022924055      -13.1634972610
 C         5.9205400908       -2.0467278034      -14.4494542981
 O         6.1925469680       -2.9661977830      -15.2006141949
 C         6.2320992805       -0.5084844925      -14.6230988197
 C         7.1335825163       -0.4157431738      -15.9002318473
 O         6.8531555128       -0.9521589059      -16.9314184593
 C         8.4227587812        0.5134936907      -15.9381509385
 C         9.3101707207        0.6852606479      -17.2580734277
 C        10.1617172548       -0.5090040343      -17.4503310291
 O        10.0850783498       -1.4417315543      -16.6857095124
 C        11.1332640827       -0.4603830063      -18.7019404991
 C        10.5880263299       -1.6366413800      -19.6888932700
 O        10.7903211342       -2.8257739680      -19.4386867462
 C         9.6422247216       -1.2523964510      -20.8545521709
 C         8.9657146903       -2.2901209966      -21.7067372964
 C         7.7919387442       -3.0069206844      -21.0557200124
 O         7.3006196626       -2.7166158949      -19.9688425391
 C         7.3108321761       -4.3834264202      -21.8423569702
 C         7.7226208844       -5.6316500555      -21.0020108591
 O         6.8837130274       -6.2339146919      -20.3589518041
 C         9.1843320168       -6.2285634077      -21.0729421777
 C         9.6045799474       -6.8226968851      -19.7393645660
 C         9.6062731828       -5.7362067066      -18.5924201630
 O         8.9479064742       -4.7646048427      -18.8556781780
 C        10.2901435439       -5.9103286727      -17.2879396043
 C         9.0101992182       -5.9131944827      -16.1906461142
 O         8.2479902155       -4.9838029210      -16.1611028453
 C         8.9936016667       -6.9667067984      -15.1424609859
 C        11.3059258620       -6.9917171547      -17.1807694353
 C        11.0529535120       -4.6295839669      -16.8438859888
 C         5.8069797527       -4.3453951958      -21.7841875123
 C         7.9243470049       -4.4616064504      -23.2922213593
 C        11.1021173577        0.9472586405      -19.2568622777
 C        12.6095694450       -0.8112956382      -18.2897174931
 C         4.8932537019        0.1408727001      -15.0468982316
 C         6.8215913222        0.1763349805      -13.4066041586
 C         1.6656042327       -4.8422137321      -14.5262517793
 C         0.3372298031       -2.6894185734      -14.3364466707
 C         2.1300743208        1.3070644792      -10.1649186633
 C         1.1533202226        1.0653436119       -7.8889120459
 C        -5.3504845135        4.4142551972       -9.1115541992
 C        -4.8355064685        2.2876706731       -7.7581812630
 C        -8.9919314707       -0.2281121387      -14.1901953587
 C       -11.0358132843        0.7233985782      -13.0982850663
 C        -8.9591115827       -3.3126254129       -7.4795464553
 C       -11.2106167149       -4.3367617782       -7.6009377761
 C       -14.6047724346        1.2555980849       -3.7274633337
 C       -12.9979027320        0.3789520013       -1.9404444266
 C       -17.7740904833       -4.4558121220       -0.2478729793
 C       -19.9015642503       -3.2407791631        0.1322940000
 C       -16.3866505343       -1.2321773904        6.2030219619
 C       -17.2794733408        1.0204633491        5.2283102425
 H       -13.1949383768       -0.1138733594        4.2059060740
 H       -13.9359579225       -0.8183531828        5.6473205220
 H       -13.8091466507        1.0105525560        5.3612114636
 H       -18.7887973628       -2.4084209238        5.1317635544
 H       -17.2593441033       -3.0600318124        4.4522830706
 H       -19.6565760055       -2.8163049146        2.6765088571
 H       -18.7992839718       -4.2199791535        3.0858731453
 H       -18.0328508109       -2.3539943979       -2.5012399816
 H       -16.5774553704       -2.8609599116       -1.7366064532
 H       -17.3961353955       -0.0293005800       -2.6828284763
 H       -16.4560144338       -1.0715378727       -3.6647578712
 H       -11.7532017237       -1.6524447462       -3.4425065108
 H       -12.0359572772       -0.5641763255       -4.7682237600
 H       -12.8013641948       -2.3459323947       -6.2053333631
 H       -12.4071243386       -3.5832823719       -5.0621971412
 H       -12.2332431162       -2.7717162508      -10.0530124493
 H       -10.4882107949       -3.2230446378      -10.2132646118
 H       -11.2892634686       -0.3058505874      -10.7219814315
 H       -11.8064209079       -1.4326158266      -11.8461308842
 H        -6.9417505597        0.7004109900      -12.5566569195
 H        -7.4060155792       -0.0020318618      -10.7580836228
 H        -7.7452641348        2.6210550440      -10.4350595352
 H        -6.3779147629        2.6351711554      -11.6185469724
 H        -2.2601211927        1.3642052673      -11.0774008350
 H        -3.2346382202        0.5403780033       -9.7437408752
 H        -1.3684534945        1.2727303620       -8.2250771258
 H        -0.9191254725        2.6133021122       -9.2401165972
 H         2.6958643946       -2.6092081631      -10.1474090493
 H         2.5546782255       -1.2038988112      -11.3938434224
 H         0.1321840189       -1.8489374303      -11.5137882172
 H         0.4405587487       -3.0790300914      -10.3520636942
 H         4.2696059321       -4.2755428489      -13.9915764074
 H         3.7100585974       -4.1029136599      -12.4668073330
 H         5.9547784064       -3.0389170808      -12.5577581644
 H         4.7845763633       -1.6835065500      -12.6229240903
 H         8.9928274010       -0.1621873798      -15.2862541690
 H         8.2650529062        1.4890313553      -15.4589542622
 H         9.9525428165        1.5604791868      -16.9940687147
 H         8.5478363415        0.8830676553      -18.0125140233
 H        10.2997375644       -0.5403228084      -21.4799763700
 H         8.8118285250       -0.5843016255      -20.4762491228
 H         9.7551729958       -2.7770214055      -22.3016964657
 H         8.4173307060       -1.7001519404      -22.4847574405
 H         9.9261976136       -5.4349180069      -21.2882564552
 H         9.2204067454       -7.1130779180      -21.7548563091
 H        10.5919591058       -7.2320102101      -19.9440502980
 H         8.8501016641       -7.6068417243      -19.5220352892
 H         9.9223850290       -6.9155039586      -14.5268855703
 H         8.9815779622       -7.8957933689      -15.6494093618
 H         8.0248699354       -7.0731466043      -14.6230111110
 H        11.3314888231       -7.5813487764      -18.0884380742
 H        11.0826329151       -7.4747943418      -16.1968878928
 H        12.2703129700       -6.5967440036      -17.2266381508
 H        10.3831941818       -3.7758011301      -16.8281175196
 H        11.8945920381       -4.3337682557      -17.5131999704
 H        11.4619681277       -4.6896016869      -15.8262356632
 H         5.2847719775       -5.1438460182      -22.4046079736
 H         5.3789149098       -3.3592312133      -21.9742913031
 H         5.5230640274       -4.4903963933      -20.7634380769
 H         7.3038938394       -5.1881070121      -23.8682067586
 H         8.9660569859       -4.7692909909      -23.1790614132
 H         7.8407372915       -3.5086271190      -23.7161724644
 H        10.1644332142        1.1166301155      -19.8090747584
 H        11.8400160171        0.9868331330      -20.0385768582
 H        11.4889242199        1.6769473696      -18.4595560780
 H        13.3335314924        0.0088204237      -18.1784092389
 H        13.1493755647       -1.4127704167      -19.0207803471
 H        12.5725090561       -1.4741048446      -17.3397777323
 H         4.1486682165        0.2542002987      -14.2381147983
 H         4.4443265793       -0.1689604891      -16.0072484406
 H         5.2054218182        1.1338426029      -15.2216426358
 H         7.4593055959       -0.4827819973      -12.8036938691
 H         5.9756782723        0.4282119457      -12.8167699636
 H         7.2921470178        1.1460979125      -13.5653218414
 H         0.7639174097       -5.3399697403      -14.7685458080
 H         2.3617198114       -5.5384586501      -14.0572223611
 H         2.2368136810       -4.5971904686      -15.4401637924
 H        -0.6423499361       -3.1868043217      -14.1478650254
 H         0.5769312191       -2.5941334821      -15.4331687831
 H         0.2014733787       -1.6914249777      -13.9376131904
 H         2.6321893172        0.6439445164      -10.8543969168
 H         2.8754281990        1.8015331702       -9.5612125139
 H         1.7161601658        2.0441464188      -10.7787129181
 H         2.0346610200        0.8819623906       -7.3679137956
 H         0.4198300309        0.4500462449       -7.3297714028
 H         0.6937917535        2.0422274828       -7.7572413481
 H        -5.4050967354        4.7901340518      -10.1414595913
 H        -4.5746104665        4.9334008884       -8.6184895741
 H        -6.3092557068        4.6008423752       -8.6425436775
 H        -5.6882161648        2.6325448940       -7.1329472692
 H        -3.9149779399        2.6679528254       -7.3533982891
 H        -4.8923367245        1.1539038888       -7.6329553353
 H        -8.2816486640       -1.0166069234      -14.2193196689
 H        -8.4634924089        0.6827508984      -14.5607666722
 H        -9.6965144588       -0.6193142209      -14.8772788666
 H       -11.8003775558       -0.0131685654      -13.3447551438
 H       -10.9566067731        1.3315606639      -14.0421852849
 H       -11.3432021423        1.2421806978      -12.1994845841
 H        -8.3642473198       -2.5235461213       -7.1583433817
 H        -8.8240986030       -3.3436620581       -8.5660484639
 H        -8.6762574074       -4.3293566257       -7.1056356813
 H       -11.1845141074       -5.0684804371       -6.7542217424
 H       -10.7475269438       -4.7955136115       -8.4476162503
 H       -12.2861101339       -4.2831466413       -7.7899365912
 H       -14.4614702082        2.1009986471       -3.1782507717
 H       -15.6013951949        1.3273353649       -4.1789332682
 H       -13.8577424969        1.2289025403       -4.4874304695
 H       -12.9801154935        1.4527992891       -1.5572960448
 H       -12.0784469817        0.3641452830       -2.4690178384
 H       -12.9037787530       -0.2003026724       -1.0239320419
 H       -18.1374894766       -5.2594740571        0.3240361375
 H       -16.6947201984       -4.3474762233       -0.0821553275
 H       -17.9057478632       -4.7593792327       -1.3093535914
 H       -20.2936285703       -3.8363284058        0.9514247191
 H       -20.1110632982       -3.7468405331       -0.8877591283
 H       -20.3382758752       -2.2395135924        0.2134695965
 H       -15.8059836289       -2.1949011692        5.9758773709
 H       -17.3599083136       -1.5739667341        6.5067070232
 H       -15.7644113643       -0.7086159293        6.9761362973
 H       -16.6159879358        1.5961385852        5.8432683747
 H       -18.2766264698        0.8971232740        5.5275983853
 H       -17.4523801279        1.5095548027        4.2208952408
 Na      -16.6525427681       -0.1913914817        1.2626700457
 Na        7.6705406177       -3.0178891870      -17.4963569043
