232

 C       -14.0864148710        0.1893204831        4.6307452531
 C       -15.5642455779        0.2383419827        4.0811504198
 O       -15.7405025368        0.5924145613        2.8907855529
 C       -16.7528171513       -0.1819794459        4.9962268085
 C       -17.7084376336       -0.9273406061        4.0222342616
 O       -18.2164598494       -0.2730283486        3.1342733194
 C       -17.9419083829       -2.3742101491        4.1896621545
 C       -18.6610404420       -2.9684536186        2.9929006979
 C       -17.8243383083       -2.8295272849        1.6973731264
 O       -16.6227130033       -2.5807060855        1.7764277569
 C       -18.3338074350       -3.2290463845        0.1743829270
 C       -18.0674280830       -1.8698527453       -0.6700082337
 O       -18.5613856924       -0.8146847391       -0.2309565318
 C       -17.1821142960       -1.9067210694       -2.0321487651
 C       -16.7884890238       -0.4184330282       -2.5097548364
 C       -15.4382767541       -0.1699303262       -1.8379881468
 O       -15.3534674525        0.0325588053       -0.6329674265
 C       -14.1135573889       -0.0726668495       -2.8243549916
 C       -13.8249940496       -1.3696790053       -3.6116206220
 O       -14.7079509062       -2.1424382707       -3.8750415465
 C       -12.4522370300       -1.5016667044       -4.2314143217
 C       -12.2078805413       -2.4668494482       -5.4037980873
 C       -10.7962102158       -2.6425775792       -5.9153866095
 O        -9.8026453867       -2.2233011608       -5.3552536018
 C       -10.7370033700       -3.3063736015       -7.3682305215
 C       -11.0897717198       -2.1140734488       -8.4006081726
 O       -11.3447232747       -0.9724212706       -8.0446822226
 C       -10.9559061620       -2.4416588555       -9.8697842817
 C       -11.0898100409       -1.1641168298      -10.6807238548
 C        -9.9586797013       -1.2049578683      -11.8245393385
 O        -9.2955246892       -2.1616636536      -12.1312137622
 C        -9.6999358397        0.1859580958      -12.6692269079
 C        -8.9874449921        1.0977925498      -11.7170723516
 O        -9.5641980455        1.7743281172      -10.9206308442
 C        -7.4066013561        1.0835739673      -11.7271457961
 C        -6.7653878928        2.0444291276      -10.7405935886
 C        -5.7971051000        1.5603432275       -9.5637372135
 O        -5.5397889193        0.4268017488       -9.2503455061
 C        -4.8692499846        2.7931460503       -9.0960301798
 C        -3.4403119015        2.6937827771       -9.8735380293
 O        -2.9282348590        3.5431769368      -10.5229554153
 C        -2.7771177408        1.3059540005       -9.8734966044
 C        -1.4394609572        1.2566370646       -9.0065377516
 C        -0.2604230142        0.6892356315       -9.9075998657
 O        -0.4963524714        0.2657574834      -11.0512477942
 C         1.1203207150        0.7123129974       -9.4521915505
 C         1.4740676998       -0.8905337016       -9.5217649150
 O         1.4401147547       -1.5541401852       -8.4947265658
 C         1.7986084691       -1.5649347324      -10.8877402155
 C         0.6443789525       -2.4765826782      -11.3353253083
 C         1.3156335826       -3.6169292211      -12.2051639974
 O         1.6719648433       -4.6120755914      -11.6605181605
 C         1.6190903567       -3.4459989054      -13.7289733650
 C         2.8627711379       -2.6056981170      -13.6665792973
 O         2.8390993611       -1.3627819688      -13.6349890335
 C         4.1819839320       -3.3821550021      -13.3745440145
 C         5.3933934167       -2.3065727614      -13.2458395026
 C         6.0695343172       -1.9152449640      -14.5990308426
 O         6.6315380195       -2.7743961029      -15.2298937791
 C         6.0995327858       -0.3641654912      -15.0647656438
 C         7.2929151445       -0.3074378912      -16.0929227547
 O         7.1219332159       -1.0009212429      -17.0899821618
 C         8.5369172656        0.6264056751      -15.8098196174
 C         9.3349110873        0.6887446935      -17.2509211569
 C        10.0699276571       -0.5877805826      -17.5308109217
 O        10.1383134201       -1.5875363396      -16.8158358401
 C        11.0771131308       -0.5242325493      -18.7653715299
 C        10.4157596946       -1.6253505612      -19.7117065094
 O        10.4396771922       -2.7501698534      -19.2506497455
 C         9.6259903371       -1.3210097249      -21.0110939210
 C         9.2931717837       -2.6496653325      -21.6754854480
 C         8.0409389476       -3.1358939202      -21.0206752034
 O         7.6247544805       -2.5807781709      -19.9857738484
 C         7.3015453509       -4.3758927539      -21.5921941834
 C         7.7339990896       -5.7495980380      -20.8180796413
 O         6.9024176500       -6.4392242688      -20.2543019075
 C         9.3104943347       -6.1647153145      -21.1166940878
 C         9.9492789319       -6.6401277139      -19.8432911881
 C         9.6716037667       -5.7424743041      -18.6425584931
 O         8.9522819751       -4.8184020703      -18.8707507910
 C        10.1525907673       -6.0844363328      -17.1915530705
 C         8.8734561090       -6.0070260713      -16.2016874261
 O         8.0977023543       -5.1127799372      -16.2193691827
 C         8.7309034073       -7.2217292303      -15.3544814226
 C        10.9699751919       -7.4344151918      -17.1892844562
 C        11.2169339485       -4.9463664828      -16.8657548641
 C         5.7826790334       -4.1166547310      -21.4201258470
 C         7.7263806448       -4.6268009228      -23.0576103912
 C        11.3210338385        0.8614739758      -19.4061450223
 C        12.4364753130       -1.1000623343      -18.3745798801
 C         4.7616135648        0.0622185744      -15.7215002191
 C         6.4021639562        0.4853502103      -13.8000163232
 C         1.7491596006       -4.9219388868      -14.3093146841
 C         0.4362193183       -2.7386450000      -14.4519490565
 C         1.9163719879        1.5516120585      -10.4137577404
 C         1.3241521134        1.1236827921       -7.9963035362
 C        -5.6622393540        4.1746678853       -9.2321025881
 C        -4.4095437266        2.5476322640       -7.6987639142
 C        -8.9021723252       -0.3529417064      -14.0029402426
 C       -11.0854538958        0.8808801565      -13.1345578458
 C        -9.2560211568       -3.6717744519       -7.6746993356
 C       -11.6374443487       -4.5551030290       -7.6147880847
 C       -14.3028560064        1.0695619541       -3.8953736328
 C       -12.9506450428        0.3934342861       -1.8897952162
 C       -17.4882352896       -4.3969324718       -0.2943127051
 C       -19.8173380258       -3.5894939880        0.2589442467
 C       -16.3670763046       -0.9803052652        6.2524214770
 C       -17.3696073600        1.2221784021        5.4144518165
 H       -13.4007124537       -0.2979124853        3.9496253856
 H       -14.1401190036       -0.5142816533        5.4125429926
 H       -13.6231075311        1.2128904787        4.8358776645
 H       -18.4140543433       -2.6975696421        5.1295581674
 H       -16.9160712304       -2.7509523291        4.2428674077
 H       -19.6193585973       -2.3916753099        2.9468580369
 H       -18.9336921627       -4.0387928783        3.1408289672
 H       -17.8566529176       -2.3401486226       -2.8065693984
 H       -16.3364323662       -2.6276593024       -1.8768503113
 H       -17.5049360026        0.3502996147       -2.1967965344
 H       -16.7132026295       -0.4266162465       -3.6291072186
 H       -11.7210526553       -1.7044342966       -3.4003047168
 H       -12.1099673882       -0.4979079225       -4.6846409983
 H       -12.7589841663       -2.1147617710       -6.2716868425
 H       -12.7013429130       -3.4151174538       -5.2281411531
 H       -11.8058952613       -3.0489652659      -10.2580338058
 H        -9.9586361843       -2.8232955184      -10.0138327343
 H       -10.9262225605       -0.2922819642      -10.0623526096
 H       -12.0028737522       -0.8977679480      -11.1851336725
 H        -7.0847920971        1.4672011035      -12.7045845107
 H        -7.0844134444        0.0480414903      -11.5237447640
 H        -7.5697581601        2.4910323280      -10.1485932663
 H        -6.2047974517        2.8300683464      -11.3673890457
 H        -2.5017688035        1.0807176879      -10.9758400737
 H        -3.4221594897        0.5421572112       -9.5409546559
 H        -1.6125458482        0.7572490060       -8.0016801259
 H        -1.0172772192        2.2186706527       -8.7730784468
 H         2.7106851557       -2.1978663924      -10.6708738383
 H         2.0217995767       -0.8094244811      -11.6614545661
 H        -0.0042104080       -1.8549892009      -11.9712443581
 H         0.1495139105       -2.8159039332      -10.4489184762
 H         4.4784526323       -4.1044594478      -14.1534867628
 H         4.1497350267       -4.0701503688      -12.4793430403
 H         6.2243599521       -2.8481310383      -12.7370005594
 H         4.9587201908       -1.5166088301      -12.6337857028
 H         9.2619504600        0.0214112225      -15.2467367578
 H         8.1266804793        1.5047123024      -15.3106796965
 H        10.0001700321        1.5314726120      -17.2395623216
 H         8.6627352309        0.6522659660      -18.0658234985
 H        10.2599902038       -0.7691638646      -21.6903857747
 H         8.6803559600       -0.8357632842      -20.8496210476
 H        10.1483832789       -3.3330666012      -21.7561959721
 H         9.1787942382       -2.4244191651      -22.7269970595
 H         9.8947343268       -5.2964556761      -21.4594434684
 H         9.2252451858       -6.9568729598      -21.7846455114
 H        11.0541797060       -6.6274062926      -19.9714605489
 H         9.5161539460       -7.6229782951      -19.6782851100
 H         9.7115932603       -7.5457661256      -14.9556599499
 H         8.2794551391       -7.9291100998      -15.9726832758
 H         8.0280610407       -7.2239931751      -14.5102428663
 H        10.3943376350       -8.2116036143      -16.7477459788
 H        11.7263310664       -7.2315201067      -16.3920799530
 H        11.2030085126       -7.7539355082      -18.1878391516
 H        10.7318367130       -3.9917716179      -17.0341355737
 H        12.0672723494       -5.0108817282      -17.5198241333
 H        11.4908552223       -4.8431876128      -15.7946247178
 H         5.1738362980       -5.0654207643      -21.2679925375
 H         5.2727449787       -3.6712531119      -22.2425888383
 H         5.6997265289       -3.4967210807      -20.5670820463
 H         7.3613410600       -5.6051257287      -23.3088165155
 H         8.7885447241       -4.3819684288      -23.0879817985
 H         7.2646645454       -3.8912937494      -23.7057136113
 H        10.4604803116        1.3127990246      -19.7637514378
 H        11.9075946375        0.7468865747      -20.2720077459
 H        11.9564755584        1.3724859047      -18.6776912044
 H        12.8456519151       -0.6406297744      -17.5131745082
 H        13.1995331117       -1.0434677204      -19.0699600375
 H        12.2656460373       -2.1052764157      -17.9559803041
 H         4.0304243460       -0.1066830959      -14.9163259778
 H         4.5085873510       -0.6118585751      -16.5739672493
 H         4.6285747590        1.0471198797      -16.0462488908
 H         7.4296447802        0.4148520076      -13.5204623759
 H         5.7506693737        0.3483093183      -12.9675259955
 H         6.3165809912        1.6002834678      -14.0373318373
 H         0.8347142069       -5.4534218698      -14.3299645046
 H         2.4129484015       -5.6049341381      -13.7017810008
 H         2.1986770398       -4.8957893811      -15.3174477211
 H        -0.4797982359       -3.2376165111      -14.2134690338
 H         0.6897473575       -2.7997888861      -15.4852999033
 H         0.1233079627       -1.7523015979      -14.1425285644
 H         1.3238421561        1.8251221122      -11.3274190964
 H         2.8971719514        1.1215662905      -10.6988534272
 H         2.3111055508        2.4757588862       -9.9781959018
 H         2.3863212239        1.1171353604       -7.7123482351
 H         0.9509323188        0.6077844107       -7.0903906318
 H         0.9593033428        2.1562042582       -8.0332933458
 H        -5.6830982404        4.4567021067      -10.3092979002
 H        -5.1172602954        5.0267668362       -8.7135272140
 H        -6.6873864869        4.0887097696       -8.8458752519
 H        -5.1430002817        1.9866698072       -7.1469508051
 H        -4.3987437750        3.4799896229       -7.2217167788
 H        -3.4493209069        1.9674559990       -7.5793027683
 H        -8.7329760520       -1.4357345574      -13.9184316024
 H        -7.9106834044        0.1444062653      -14.1560319875
 H        -9.3309326960       -0.3249129491      -14.9954749945
 H       -11.6044035458        0.2471720309      -13.7959505094
 H       -10.8818153292        1.8854209378      -13.5687938003
 H       -11.7391994450        1.1073563594      -12.2496098270
 H        -8.6737908694       -2.7781245873       -7.7043681646
 H        -9.1021117411       -4.2821247513       -8.5913352706
 H        -8.9476739425       -4.2450099586       -6.7521786562
 H       -11.3633485372       -5.4257451249       -6.9262096000
 H       -11.6370860223       -4.8520344711       -8.6296695671
 H       -12.6735973249       -4.3934285725       -7.3178043537
 H       -14.9422737932        1.8228124634       -3.4363471534
 H       -14.8114795484        0.8476469832       -4.9085026257
 H       -13.2619714420        1.5301983213       -4.0784343395
 H       -13.5168996698        0.8152273802       -1.0181557614
 H       -12.2852884765        1.1533391827       -2.1712283005
 H       -12.4097146210       -0.4219660064       -1.4041758647
 H       -17.3364958862       -5.1968343077        0.4204129016
 H       -16.3987827683       -4.0378828330       -0.4415890549
 H       -17.8132562033       -4.7564151818       -1.2726622557
 H       -19.8207245205       -4.5892992270        0.5430014226
 H       -20.1650791264       -3.5437327024       -0.8012251629
 H       -20.3999917544       -3.0352271744        0.9910717365
 H       -15.7654026435       -1.9080242497        6.2161702775
 H       -17.3299334589       -1.3466918440        6.5198634918
 H       -15.9389833990       -0.2109254268        6.8367177864
 H       -16.5538779052        1.7352300703        5.8888284895
 H       -18.1728433928        1.0534606893        6.1017412758
 H       -17.7488504384        1.7934292946        4.5289948317
 Na      -16.8943660272       -0.0736300059        1.1059349808
 Na        8.2779075961       -3.0080098944      -17.5473530381
