232

 C       -14.1002306691        0.3987062702        4.5655155150
 C       -15.5322220911        0.4725518320        4.0506057244
 O       -15.7483303161        0.7416765290        2.9127328654
 C       -16.8442460655       -0.0387446426        4.9803511835
 C       -17.8554701394       -0.8263360089        4.0216771284
 O       -18.3965499685       -0.1651550411        3.1261148865
 C       -17.9526821011       -2.3601548912        4.0526812467
 C       -18.6069354642       -2.8303394096        2.7102030565
 C       -17.5577200124       -2.8206364422        1.5974024276
 O       -16.4860930427       -2.2860788884        1.5954335727
 C       -18.1364779045       -3.3029789037        0.1556659536
 C       -18.0185810746       -1.9303947509       -0.6016807027
 O       -18.6259067278       -0.9922782272       -0.1627812178
 C       -17.3649082847       -1.8772696102       -2.0632542300
 C       -16.6878935705       -0.6078975278       -2.4164926627
 C       -15.3330052129       -0.3159700038       -1.7945620187
 O       -15.2113242049       -0.1177902503       -0.5970487406
 C       -14.0330123199       -0.0995158112       -2.7227628358
 C       -13.6894894398       -1.3484680626       -3.4949190213
 O       -14.5387311621       -2.2238031094       -3.4856473306
 C       -12.3599636717       -1.5111608902       -4.1262014905
 C       -12.4724060864       -2.4165749916       -5.4166802230
 C       -10.9959224211       -2.6916510793       -5.9952172396
 O       -10.1109504379       -2.5797895079       -5.2208650974
 C       -10.8447517836       -3.3641875236       -7.3862489846
 C       -11.2187561328       -2.2038793114       -8.3779301482
 O       -11.6910506816       -1.2501683102       -7.8437448427
 C       -10.9444423115       -2.3259794167       -9.8105361421
 C       -11.0928493482       -1.0061218864      -10.5849441189
 C       -10.0222437270       -1.1669375627      -11.7864160904
 O        -9.4932602013       -2.2357197530      -12.0893301016
 C        -9.6447714433        0.1931568429      -12.5801284831
 C        -8.8558982104        1.0258573156      -11.6025012785
 O        -9.5217609383        1.7914631042      -10.8599578763
 C        -7.3200719675        0.9286802613      -11.4946005824
 C        -6.8556761767        2.1300344812      -10.6827055793
 C        -5.8554464540        1.6799172365       -9.5778924720
 O        -5.9104307978        0.5406545440       -9.1717445977
 C        -4.8500576438        2.7667303450       -9.0043400421
 C        -3.4683569418        2.5880306455       -9.7882870121
 O        -3.0060803609        3.4796616500      -10.4782522879
 C        -2.8506962830        1.1501286162       -9.7619731318
 C        -1.5173404331        1.2493335032       -9.1212465870
 C        -0.4171531247        0.8692426177      -10.0816041544
 O        -0.6415965099        0.4865241833      -11.1979927273
 C         1.1070140491        0.7294505891       -9.5738983150
 C         1.3355485781       -0.8257440189       -9.6351962277
 O         1.1727857373       -1.5897052423       -8.7338176898
 C         1.5709220322       -1.2893366836      -11.0767208601
 C         0.5173535242       -2.4268043329      -11.3595266261
 C         1.3606131279       -3.5385296074      -12.0150158496
 O         1.8941423047       -4.4527868847      -11.4134586309
 C         1.6584099139       -3.4432152154      -13.5920085751
 C         2.9458359871       -2.5376294523      -13.6014990583
 O         2.8514177953       -1.3262959227      -13.6413662609
 C         4.3698541484       -3.2308192434      -13.5726235376
 C         5.6099684439       -2.2999329189      -13.4074339866
 C         6.3114446845       -1.8473839893      -14.7042213679
 O         6.8319381862       -2.6843982907      -15.4020120525
 C         6.2700555794       -0.3670924562      -15.2702667418
 C         7.3313763230       -0.1701786495      -16.3283876986
 O         7.2934949191       -0.8531791065      -17.3247586690
 C         8.5767454551        0.7479031103      -15.9500989331
 C         9.4864331757        0.9407259413      -17.1184753070
 C        10.1563576595       -0.4860354174      -17.4761960635
 O        10.0248129350       -1.4536203035      -16.7628951623
 C        11.1574637806       -0.5659473329      -18.7062792331
 C        10.4896757626       -1.7023346811      -19.7432016521
 O        10.3824720161       -2.8150961752      -19.3397269581
 C        10.1076575441       -1.4072829702      -21.1313525790
 C         9.1276969918       -2.4989874071      -21.8474958916
 C         8.0593037423       -3.1541173443      -20.9774169894
 O         7.8063976894       -2.7241406107      -19.8752664463
 C         7.2630024077       -4.4308963749      -21.5894710788
 C         7.7951690943       -5.7979882658      -20.8936061136
 O         7.1289259815       -6.4637834288      -20.1202504564
 C         9.3186546615       -6.2253056525      -21.2281097949
 C         9.9497813355       -6.7820551259      -19.8490461698
 C         9.5963595286       -5.9242332305      -18.6633165928
 O         8.8858785354       -4.9533996336      -18.8135431789
 C        10.1467010433       -6.2250842573      -17.2242133275
 C         8.9021861584       -6.1690776529      -16.2821530838
 O         8.3823405911       -5.0666714655      -16.2422789441
 C         8.4038344159       -7.2749520093      -15.3576496144
 C        10.7490203073       -7.7050430143      -17.1469647811
 C        11.1046599644       -5.2103761922      -16.7517766805
 C         5.8543747357       -4.3718354680      -21.1452168424
 C         7.2564850700       -4.6131892673      -23.2103652287
 C        11.3213252989        0.7928820545      -19.5152581769
 C        12.5191279840       -1.1527758988      -18.2109496722
 C         4.8165189866       -0.2984092003      -15.9912505638
 C         6.1989337880        0.8425860806      -14.1772702470
 C         1.8925211580       -4.8016009869      -14.2277859041
 C         0.5939297177       -2.7053583879      -14.3775733348
 C         2.1054740577        1.4294506268      -10.4828248373
 C         1.3796723795        1.1798434337       -8.1493511697
 C        -5.3892557512        4.1287638466       -9.2293454215
 C        -4.5116908862        2.3817426601       -7.4670068875
 C        -8.8196194854       -0.0591835299      -13.8606742065
 C       -10.9711371811        0.8961172362      -13.0968058499
 C        -9.3995773925       -3.9725759306       -7.6395431599
 C       -11.9198250228       -4.5503405523       -7.4486433142
 C       -14.3520873217        1.0471456020       -3.8932900864
 C       -12.8405138736        0.3680141685       -1.8802632340
 C       -17.3934761804       -4.4895338470       -0.3667786832
 C       -19.6649202964       -3.6525017217        0.1990436364
 C       -16.3765745887       -0.8443966881        6.2469695729
 C       -17.5018876670        1.2640573198        5.3660147456
 H       -13.4639652082        0.1829775173        3.6902103867
 H       -13.9524282758       -0.4837706714        5.2140827438
 H       -13.7938834956        1.3365849397        4.9089886994
 H       -18.6047234031       -2.7064654079        4.8590061687
 H       -16.9863143415       -2.8663423475        4.2806792153
 H       -19.4615429571       -2.2194067999        2.4855410729
 H       -18.9252291070       -3.8476993426        2.8671565640
 H       -18.2576940878       -1.9079517943       -2.6731302412
 H       -16.8145294354       -2.7458867994       -2.3218161744
 H       -17.3816120599        0.1740476617       -2.0715909127
 H       -16.5975735418       -0.5807692220       -3.4761999387
 H       -11.5946486167       -1.7883809228       -3.4155228815
 H       -12.0628108854       -0.5852250362       -4.5034431427
 H       -13.1200280765       -1.8947301536       -6.1478628567
 H       -13.0521960834       -3.3270919798       -5.1783340027
 H       -11.6165832463       -2.9670328544      -10.3009682054
 H        -9.8836536032       -2.6269294908       -9.8424055844
 H       -10.8466186809       -0.1175990880       -9.9593045775
 H       -12.0673022770       -0.7704514394      -11.0571883400
 H        -6.8271209000        1.0656633160      -12.4916868563
 H        -7.1555533530       -0.1306922904      -11.0632999073
 H        -7.6978372949        2.6878892708      -10.1819935809
 H        -6.3188498775        2.7160269246      -11.4177069105
 H        -2.7779994860        0.8881357309      -10.7807439985
 H        -3.4985447305        0.3119350895       -9.2985563974
 H        -1.3341469989        0.5531728430       -8.3185780735
 H        -1.3873894784        2.2821601159       -8.6594683163
 H         2.5959070754       -1.6710404436      -11.0706284754
 H         1.5790036392       -0.4636136095      -11.8189988161
 H        -0.2609763396       -2.1654999433      -12.0420253162
 H         0.2732150115       -2.7265432570      -10.3188068556
 H         4.4084763049       -3.8618576730      -14.5047727383
 H         4.4746787954       -3.9643789328      -12.7661752649
 H         6.3872918862       -2.8336588872      -12.8769461592
 H         5.1039131333       -1.5619877922      -12.7555052546
 H         9.1593541941        0.2560518104      -15.1683366475
 H         8.1525103191        1.7018753752      -15.6388394632
 H        10.1701518938        1.6979781675      -16.7107190141
 H         8.8691888934        1.3406264471      -17.9764253982
 H        11.0189817790       -1.2450859364      -21.7834886477
 H         9.4040080267       -0.5124590739      -21.1144405069
 H         9.6759892088       -3.3491946118      -22.2848680495
 H         8.8590036083       -2.0039775660      -22.8038964612
 H         9.8297150807       -5.3269122057      -21.5903442983
 H         9.3274768113       -7.0989105908      -21.9637832130
 H        11.0079422396       -7.0651978198      -19.9211213258
 H         9.2816417584       -7.6496995778      -19.6954815181
 H         8.9783579977       -7.4092687317      -14.4755810270
 H         8.0330494606       -8.2227647439      -15.8509667446
 H         7.5176900430       -6.9004350687      -14.9021667433
 H        10.1841226375       -8.4711488837      -17.6922213402
 H        10.8097739208       -8.0154808298      -16.1424650099
 H        11.7457407560       -7.5090622620      -17.6462115352
 H        10.7109433855       -4.1837968848      -16.5042230430
 H        11.9429887618       -5.1200979266      -17.4935612331
 H        11.5080783366       -5.5217492068      -15.7778071354
 H         5.3503001970       -5.2802927458      -21.2410501418
 H         5.2515505252       -3.7664832483      -21.8577314746
 H         5.7967732847       -4.0211669660      -20.0740102077
 H         6.3638431614       -5.1599182374      -23.3776638749
 H         8.1664559862       -4.9926681858      -23.5795983745
 H         7.1095424694       -3.6236447108      -23.6253144669
 H        10.3485980317        1.0003227292      -20.0581758760
 H        12.1437989119        0.6080414381      -20.2791297070
 H        11.6058262378        1.5865137233      -18.8675082518
 H        12.8145442208       -0.8989060566      -17.1602031413
 H        13.3491982242       -0.7185152931      -18.8762565066
 H        12.5846667055       -2.2046032002      -18.1176677524
 H         3.9557450420       -0.5241035777      -15.4161988459
 H         4.9093488581       -0.9482886564      -16.8098080368
 H         4.7131607906        0.7492516541      -16.3957750352
 H         7.0219007120        0.8200880497      -13.4649056652
 H         5.2961064376        0.5953777952      -13.6102252405
 H         6.2216264863        1.8166839062      -14.5205077504
 H         1.0166799509       -5.4839663989      -14.1408274073
 H         2.6217385521       -5.4033637496      -13.7530578338
 H         2.0944389745       -4.6643053651      -15.2729107997
 H        -0.4579181353       -2.9917719589      -14.1659722273
 H         0.8319041268       -2.7382397472      -15.4655857593
 H         0.5572914835       -1.6735818811      -13.9616175346
 H         1.7345416313        1.6195221532      -11.4584813003
 H         3.0746902526        0.9815154457      -10.5547412023
 H         2.3641594533        2.4022547086      -10.0455642037
 H         2.3937079271        0.8522996721       -7.8704806665
 H         0.8711887469        0.6492645603       -7.3861819101
 H         1.3585627813        2.2513773106       -7.9905473235
 H        -5.1380761785        4.3687477990      -10.2430583856
 H        -4.9032345983        4.8675162437       -8.6011517387
 H        -6.4571948100        4.2654067093       -9.0081551824
 H        -5.2303632315        1.7959207959       -6.8263926950
 H        -4.3205462689        3.3115906334       -6.8173970495
 H        -3.6079837330        1.8274697732       -7.6040386095
 H        -7.9902765934       -0.7659445235      -13.7957181186
 H        -8.5061794996        0.8556755115      -14.2683676078
 H        -9.4057860903       -0.4717393845      -14.6844845562
 H       -11.8094832684        0.2076657710      -13.4053762065
 H       -10.7203539145        1.6494386766      -13.8093009644
 H       -11.3111698445        1.5730667174      -12.3248478932
 H        -8.7200548628       -3.0777020559       -7.7879863947
 H        -9.4700986902       -4.6044549186       -8.5221855842
 H        -9.0057644145       -4.4741986607       -6.8045772004
 H       -11.9081424065       -5.1223755711       -6.5483230061
 H       -11.7667132610       -5.2498313741       -8.3432083094
 H       -12.9691222761       -4.1695565764       -7.5065572077
 H       -14.5681235285        2.0269495299       -3.4212802005
 H       -15.2329439673        0.8013567396       -4.3467200440
 H       -13.6226151044        1.1579045094       -4.6590093801
 H       -13.0718383650        1.2131629129       -1.2665479524
 H       -12.0099865923        0.7064043482       -2.5808701520
 H       -12.4217285155       -0.4134344102       -1.2307320832
 H       -17.4424469720       -5.3313575683        0.3593511025
 H       -16.3592008784       -4.4133215577       -0.5369048878
 H       -17.8589140814       -4.7434123344       -1.2991133968
 H       -19.9849037940       -4.4113918858        1.0079838254
 H       -19.8172255196       -4.0514953107       -0.7761235624
 H       -20.2047118066       -2.6755958692        0.3380723184
 H       -15.8128466029       -1.7147499281        5.9288210601
 H       -17.2622457453       -1.2393262599        6.8334740114
 H       -15.7209700935       -0.0894642766        6.7026383018
 H       -16.7377044269        1.9737979689        5.7214071036
 H       -18.1545459513        1.0779042262        6.2612612096
 H       -17.9726208431        1.6810641454        4.5225159366
 Na      -16.9526303221        0.0699419087        1.0883737245
 Na        8.4835204364       -3.0267882551      -17.3019338613
