232

 C       -14.2048436569        0.4519240623        4.6857552980
 C       -15.5024014283        0.4200032238        4.0042202847
 O       -15.6688731716        0.9286215546        2.8757877067
 C       -16.7638552398        0.0437848622        4.8142985849
 C       -17.7876668271       -0.7882591474        3.9345371800
 O       -18.5379932497       -0.1780808941        3.1447546267
 C       -17.9360860259       -2.2629480894        4.0607411709
 C       -18.5045680328       -2.8777206230        2.7581630048
 C       -17.5803657327       -2.7668718684        1.5080497407
 O       -16.4702671421       -2.2887234069        1.5855471050
 C       -18.1530920423       -3.2934779982        0.0751740921
 C       -18.1008435436       -2.0106619754       -0.6935651105
 O       -18.5410138645       -0.9645793541       -0.2696209733
 C       -17.3151514603       -1.9482314155       -2.1292570354
 C       -16.6778583170       -0.5581007479       -2.4326485753
 C       -15.2745809515       -0.2858288414       -1.7730040297
 O       -15.1577824255       -0.1805039685       -0.5470144954
 C       -14.0595598591       -0.0969203245       -2.6848028824
 C       -13.7205859827       -1.4588166307       -3.3963308815
 O       -14.4721119822       -2.4045026373       -3.3463545738
 C       -12.3705292225       -1.5341983580       -4.1383798659
 C       -12.4668968682       -2.4508962488       -5.4195269069
 C       -11.0653105477       -2.9306678495       -5.8398320957
 O       -10.1047423041       -2.7392810008       -5.1271570956
 C       -11.0095218948       -3.4006916158       -7.2839514144
 C       -11.3539340247       -2.2054594912       -8.3170525994
 O       -11.9080390397       -1.2301035559       -7.9107843622
 C       -10.9431353945       -2.3712811259       -9.8398259224
 C       -10.9751130034       -1.0414150511      -10.6283968512
 C       -10.0496209703       -1.0935292086      -11.8623796638
 O        -9.5735957600       -2.1828754233      -12.0922964469
 C        -9.6730551914        0.2129808029      -12.6397880714
 C        -8.8793038061        1.0214574032      -11.5815121034
 O        -9.4569936924        1.7738713807      -10.8266673526
 C        -7.3551856307        0.8850074279      -11.3562004729
 C        -6.8082901182        2.2352875108      -10.6950319661
 C        -5.9434244175        1.7161569910       -9.4653109275
 O        -6.0232412956        0.5763504879       -9.1099237142
 C        -4.8718204660        2.7721194849       -8.8959847641
 C        -3.5768709383        2.4721615770       -9.7657407699
 O        -3.1463676922        3.3877241598      -10.3869700600
 C        -2.7867170650        1.2235646910       -9.7083098828
 C        -1.3953163264        1.1989379127       -9.0822025314
 C        -0.3005037394        0.8873801935      -10.1547693711
 O        -0.6139711688        0.6624510193      -11.3607837897
 C         1.0956232910        0.7863743840       -9.6094986127
 C         1.1465275855       -0.7930666676       -9.7573775341
 O         1.1049580466       -1.4463951572       -8.7385636968
 C         1.4227753434       -1.3771677611      -11.0957081096
 C         0.5208020984       -2.6106643808      -11.4118848806
 C         1.4155280190       -3.5719299537      -12.0462242933
 O         1.9526285199       -4.4271663256      -11.3786496124
 C         1.8197702990       -3.3676766308      -13.5758697989
 C         3.0996231340       -2.5336075455      -13.6971745367
 O         2.9911072258       -1.2892712451      -13.7389607050
 C         4.5012760408       -3.1294156550      -13.7262598016
 C         5.6397895849       -2.0793669988      -13.4339758017
 C         6.3335629372       -1.8295248918      -14.7930023839
 O         6.8932436281       -2.7067574568      -15.3869415790
 C         6.1952606546       -0.4072574029      -15.4149708411
 C         7.3447838579       -0.1416578757      -16.3465409395
 O         7.3607811965       -0.6340753768      -17.4777911094
 C         8.4867001216        0.8830569241      -15.9910446546
 C         9.6616932541        0.8916059085      -17.1026227681
 C        10.2444212343       -0.4586726876      -17.4936456912
 O        10.0694439033       -1.3631619961      -16.6654107681
 C        11.0926546780       -0.5978181942      -18.8168267160
 C        10.4945831705       -1.7737786439      -19.7184307386
 O        10.5654316081       -2.8524717872      -19.1983092795
 C        10.0915682345       -1.4374816018      -21.2325378636
 C         9.1222853016       -2.4377150968      -21.8877507030
 C         8.1290186103       -3.2191824506      -20.9702599190
 O         7.8022311810       -2.7569338772      -19.8846500376
 C         7.2114779119       -4.4726789645      -21.5231101095
 C         7.9118554381       -5.7743855263      -20.9470888202
 O         7.2183012867       -6.4841081008      -20.2239913881
 C         9.3626952195       -6.2319477682      -21.1753114609
 C         9.8373681168       -6.9243507901      -19.8158520779
 C         9.5812374611       -5.9674277413      -18.7104402691
 O         8.9090738249       -4.9649867060      -18.7806593196
 C        10.1535890320       -6.3958740646      -17.2044046986
 C         8.8783536251       -6.1548211993      -16.2053628692
 O         8.4332911898       -5.0640407849      -16.1032773320
 C         8.2983001462       -7.3220275661      -15.4717359060
 C        10.6604208207       -7.9419730464      -17.1121695678
 C        11.1317818884       -5.3180375139      -16.7567163300
 C         5.7583624719       -4.3437221220      -21.0087957464
 C         7.1871100564       -4.5198773824      -23.0566857678
 C        11.3993138094        0.6986455978      -19.6064617330
 C        12.4053970522       -1.0815987678      -18.2452481552
 C         4.8521352099       -0.4494677921      -16.1973066003
 C         6.1070534735        0.7034726834      -14.2766111998
 C         1.9684784370       -4.8223008403      -14.1892213540
 C         0.6386439266       -2.6618013672      -14.2844119285
 C         2.1534836191        1.5315867960      -10.4556445957
 C         1.2787811651        1.2531582092       -8.1302851226
 C        -5.1673148913        4.2586013745       -9.1448322116
 C        -4.6691654886        2.3427672100       -7.4280918107
 C        -8.8051145293       -0.0531559951      -13.9562838325
 C       -10.9910713836        0.8954836992      -12.9709628170
 C        -9.5805263844       -3.9920728312       -7.4540436158
 C       -12.0689037671       -4.5309241132       -7.4864836133
 C       -14.4415380441        1.0531379095       -3.6931303023
 C       -12.8878509040        0.4501546410       -1.8704028663
 C       -17.2240377026       -4.4630946278       -0.4227962509
 C       -19.6035855657       -3.6700000176        0.1986745982
 C       -16.3909885373       -0.7789719255        6.1252606070
 C       -17.5452876045        1.3793306558        5.4569497077
 H       -13.4469119738        0.5613015367        3.9191619076
 H       -13.9418151215       -0.4343524563        5.1977963251
 H       -14.2184853131        1.4214350451        5.2261791854
 H       -18.6584139446       -2.4773874575        4.8203890546
 H       -17.0273993100       -2.8387707016        4.4217440189
 H       -19.4223678999       -2.2726852038        2.5125149910
 H       -18.7700063922       -3.8750968399        3.0527202829
 H       -18.1078803319       -2.1966867434       -2.8582471531
 H       -16.5758916730       -2.7217825605       -2.2490129797
 H       -17.3901782947        0.1956700675       -2.0953913558
 H       -16.5354753372       -0.5290921788       -3.5341599882
 H       -11.6777894798       -2.0466980034       -3.4800102856
 H       -11.8797890792       -0.6228394091       -4.3299801482
 H       -13.0215766858       -2.0685517720       -6.3253158284
 H       -13.0761649322       -3.2803809913       -5.0828847354
 H       -11.7445186663       -2.9114384412      -10.2809235414
 H        -9.9132630306       -2.8586903262       -9.8941589133
 H       -10.6391506330       -0.2446561875       -9.9819590050
 H       -12.0153182265       -0.7400517625      -10.9699376129
 H        -6.7439374970        0.5332346587      -12.1579966108
 H        -7.3753327800        0.1358402944      -10.5397469269
 H        -7.6264067764        2.7498469135      -10.2060145759
 H        -6.2466387846        2.8465940955      -11.4074179544
 H        -2.8007972540        0.8588378652      -10.7371044248
 H        -3.4383847953        0.5130138853       -9.1948875086
 H        -1.2534767822        0.4944359032       -8.2631540052
 H        -1.2153018041        2.1699681443       -8.6817614390
 H         2.5084503579       -1.4727788472      -11.1524388696
 H         1.2340747631       -0.6076623147      -11.8416874563
 H        -0.2941175481       -2.3651342757      -12.1171286552
 H         0.2879948023       -3.0416212295      -10.3909840947
 H         4.6565166783       -3.4584164254      -14.7563003856
 H         4.6222578547       -3.9826814969      -13.1265221694
 H         6.3883064651       -2.5366256373      -12.7912322320
 H         5.1051030387       -1.2808767451      -12.9119353261
 H         8.8052913768        0.4951030267      -15.0086570614
 H         8.0596495169        1.8899566371      -15.9511690160
 H        10.4241562903        1.6150958033      -16.7298609585
 H         9.0979668977        1.3262360082      -17.9845375605
 H        11.0165574737       -1.6115577463      -21.7546637019
 H         9.6924397931       -0.4260127721      -21.3843398381
 H         9.6993288842       -3.1469020278      -22.4844665150
 H         8.6107164278       -1.9498957208      -22.7155713722
 H        10.0499089869       -5.3486328662      -21.3554956733
 H         9.3954520176       -6.9642022241      -21.9909991514
 H        10.9302590379       -6.9393134990      -19.9270893031
 H         9.4076208704       -7.8868412831      -19.6469344066
 H         8.9074138660       -7.4010893654      -14.5146493922
 H         8.2418085849       -8.2451655251      -16.0813919318
 H         7.3269503558       -7.1713448024      -14.9735385267
 H        10.3201303897       -8.5652999654      -17.8707003102
 H        10.3878319164       -8.4543019287      -16.1716710758
 H        11.7728452249       -7.7460994952      -17.2044831701
 H        10.6848010879       -4.3432823710      -16.6497719597
 H        11.8969106564       -5.2611254447      -17.4761137837
 H        11.5962067423       -5.4746116705      -15.7655873040
 H         5.0619719705       -5.0984311639      -21.4276733893
 H         5.3195967709       -3.4687807473      -21.4570184033
 H         5.7159888547       -4.3831095924      -19.9237431554
 H         6.3349617482       -5.0828072710      -23.2994515478
 H         8.1278659101       -4.9036211539      -23.4749233115
 H         7.0180960416       -3.4734221299      -23.3807898142
 H        10.4494251739        1.1813248143      -19.9423605718
 H        12.0511832496        0.3524765085      -20.4768070772
 H        11.9826853945        1.3959667300      -18.9435138421
 H        12.7484300441       -0.5611259476      -17.3460340327
 H        13.1643066344       -0.8733686414      -19.0221642879
 H        12.4632861193       -2.1182843173      -17.8801773252
 H         4.0501246977       -0.8219364604      -15.5582745115
 H         5.0671508645       -1.2517270943      -16.9711959132
 H         4.5262559952        0.5051647563      -16.6709415152
 H         6.9311516355        0.5162107935      -13.6219474149
 H         5.1978618354        0.7104181701      -13.6524666178
 H         6.3976984950        1.7153195100      -14.6722243723
 H         0.9729768650       -5.2690833592      -14.1588107793
 H         2.4528628309       -5.5418902077      -13.5053048178
 H         2.2441624470       -4.9101693822      -15.2183176406
 H        -0.3317771662       -3.1135107287      -14.0718702794
 H         0.8157428117       -2.7560436867      -15.3327619809
 H         0.4512068327       -1.5865490963      -13.9622893405
 H         2.0320312382        1.3135699929      -11.4868409037
 H         3.1514905701        1.2972603099      -10.2137796949
 H         2.0802139223        2.6233685757      -10.3407221180
 H         2.3498392408        1.0091165156       -7.8650566072
 H         0.8033184768        0.6129814230       -7.4042661550
 H         1.2337850059        2.2813175521       -7.9406313327
 H        -5.1944806501        4.3462377603      -10.2027039696
 H        -4.4351882096        5.0008224850       -8.7388785077
 H        -6.0838057401        4.5631663391       -8.6961833751
 H        -5.5835760188        2.0330173253       -6.9559039901
 H        -4.3124838132        3.1161908857       -6.7533733996
 H        -3.9545690208        1.4948446225       -7.4749887162
 H        -7.7442588649       -0.2179538154      -13.7760385880
 H        -8.9090713517        0.7077831053      -14.6791216753
 H        -9.0878542200       -0.9216105882      -14.5328930304
 H       -11.7124634017        0.1684560262      -13.3145290737
 H       -10.8306842231        1.6729188309      -13.6882782162
 H       -11.4155404659        1.5467714008      -12.1629139873
 H        -8.8670277775       -3.1598691174       -7.3685768598
 H        -9.5397258622       -4.5617161721       -8.3681606942
 H        -9.3537619921       -4.5993905313       -6.5897983963
 H       -12.0946332404       -5.2919454167       -6.6668783587
 H       -11.8803587165       -5.0476547120       -8.4074165815
 H       -13.0509782339       -4.1068423724       -7.5711023501
 H       -14.3503334524        1.9801234328       -3.2498857213
 H       -15.4373774104        0.9535952256       -4.0288590930
 H       -13.8475616016        1.0568171668       -4.6169883961
 H       -13.0052807894        1.4538516917       -1.4531227352
 H       -11.9931510752        0.4221286137       -2.4811374059
 H       -12.6804162860       -0.2698629237       -1.0476387785
 H       -17.3938403598       -5.3706228632        0.1353630110
 H       -16.1459568075       -4.3126128982       -0.2754040441
 H       -17.3724699162       -4.6227781073       -1.4213124657
 H       -19.8028547706       -4.2419131689        1.0598597967
 H       -19.8838799335       -4.1967680209       -0.6927337902
 H       -20.0847623843       -2.6733765487        0.2966728185
 H       -15.9603330235       -1.7324620488        5.8622237278
 H       -17.3454538734       -0.9648529426        6.7290209604
 H       -15.7301522659       -0.1196007870        6.5971333759
 H       -16.8925115517        2.0432515291        6.0448123221
 H       -18.2506167229        0.9681475624        6.2122347542
 H       -17.9661398061        1.9801666789        4.6481590676
 Na      -16.9515320157        0.1150308940        1.0479333990
 Na        8.4800931035       -3.0655854561      -17.3288704872
