232

 C       -14.3024895083        1.1559844931        4.7852103243
 C       -15.5157053275        0.7985042142        3.9941253355
 O       -15.4683219090        0.9786156944        2.7845185497
 C       -16.8563492018        0.2397002715        4.7415637316
 C       -17.6820934243       -0.7113462318        3.7858462310
 O       -18.2575750792       -0.1887475131        2.8488223366
 C       -17.9330360806       -2.1964481021        4.0043618062
 C       -18.4943697966       -2.8684271665        2.7295395481
 C       -17.5488024436       -2.7026099821        1.5119196594
 O       -16.4366076001       -2.1558398494        1.5617221716
 C       -17.9244476469       -3.2632361227        0.1836382082
 C       -17.9369985674       -2.0018914242       -0.7081357215
 O       -18.5547706312       -1.0531327253       -0.2973722590
 C       -17.2890557272       -1.9765217448       -2.1790003665
 C       -16.6155872225       -0.6154809976       -2.6418968484
 C       -15.4271792062       -0.1864189968       -1.8155987528
 O       -15.6087358093        0.0511150717       -0.6241394110
 C       -13.9576413013       -0.0353331722       -2.5228791208
 C       -13.6010708140       -1.5478946620       -3.0945472636
 O       -14.2374982233       -2.4515770120       -2.5897996451
 C       -12.4882921019       -1.6730445637       -4.0687131576
 C       -12.8118046208       -2.6195460045       -5.2413555507
 C       -11.4948499967       -3.2052937969       -5.7478716250
 O       -10.5261605421       -3.3554578346       -5.0109683201
 C       -11.4169832722       -3.6619831200       -7.3212384599
 C       -11.5275223472       -2.3535262699       -8.3043223728
 O       -12.3736492874       -1.4617376001       -8.1160906555
 C       -10.6647643028       -2.3750007777       -9.6701370984
 C       -10.7695323423       -1.0039932004      -10.3561793917
 C        -9.9459538595       -1.1222069620      -11.6677196724
 O        -9.6943266131       -2.1755465978      -12.1605710273
 C        -9.7384353497        0.2843195440      -12.4832973772
 C        -8.9596530464        1.2135223023      -11.5366072092
 O        -9.5214463079        2.0315173444      -10.8984880562
 C        -7.4324064721        0.9908821108      -11.2325997865
 C        -6.8005086299        2.2238785689      -10.5691652008
 C        -6.1517917261        1.7658512875       -9.2985482551
 O        -6.3999028698        0.7755063158       -8.6022115170
 C        -5.0139762778        2.6445491916       -8.7328523149
 C        -3.7030481129        2.4617028517       -9.6205624972
 O        -3.3653724499        3.4257514369      -10.2693805043
 C        -3.0414234557        1.1043904857       -9.4603122852
 C        -1.5892516183        1.0185171670       -8.9898660945
 C        -0.4896755027        1.4581016349      -10.0651568736
 O        -0.7914931632        1.9639672653      -11.1256984134
 C         1.0184176477        1.0216164570       -9.7634948688
 C         1.1138967531       -0.5952521939       -9.7965505844
 O         0.7531287523       -1.2211930605       -8.8300304023
 C         1.2950938265       -1.3191645461      -11.2020797331
 C         1.2713776577       -2.8584754798      -11.0763174002
 C         2.1113676905       -3.6897425307      -12.1047043950
 O         2.5441603721       -4.7299374752      -11.7401881509
 C         2.1401689973       -3.4373798276      -13.7407664231
 C         3.3898163280       -2.4725949934      -13.9393854329
 O         3.2704212360       -1.2452030007      -13.9703403181
 C         4.7990619883       -3.0290949233      -13.7589861214
 C         6.0296782391       -2.0600233845      -13.8160402155
 C         6.5451128334       -1.6933239261      -15.2555343992
 O         7.3178469437       -2.5371616400      -15.6840286718
 C         6.2047158327       -0.3409846646      -16.0679120805
 C         7.4885236486       -0.0033612077      -16.8659438572
 O         7.6504493840       -0.5103536967      -17.9701307372
 C         8.5505445912        0.9432785162      -16.2649007797
 C         9.7430508914        0.9929172963      -17.1638884220
 C        10.3180750530       -0.4080621423      -17.5254272075
 O        10.0270831058       -1.3530800970      -16.7918300544
 C        11.2705989190       -0.6055567376      -18.8481048131
 C        10.6057591156       -1.7850711300      -19.5613171824
 O        10.7370762136       -2.9158595142      -19.1037486270
 C         9.7754575854       -1.4380225560      -20.8852769576
 C         9.3306695917       -2.7938475100      -21.4406913425
 C         8.0783214980       -3.2391818434      -20.6844689830
 O         7.7571924381       -2.6222737241      -19.6685954257
 C         7.2351857713       -4.4379330820      -21.2383467964
 C         7.8062897524       -5.9164027201      -20.9129999304
 O         6.9987917953       -6.8140395792      -20.7704481953
 C         9.3045350324       -6.2426403321      -20.9512481294
 C         9.7512326701       -6.9672057021      -19.7358057066
 C         9.5580303125       -6.2235830046      -18.4593713842
 O         8.9051256273       -5.1949137277      -18.4462421808
 C        10.0197823330       -6.8461081982      -17.0759260331
 C         8.8305279111       -6.4044066634      -16.0567959981
 O         8.7452515672       -5.2309508936      -15.7983036170
 C         7.8252354693       -7.4628709068      -15.7304745264
 C        10.4416265275       -8.3554037683      -17.2045962473
 C        11.2795622451       -5.9827117184      -16.6248340583
 C         5.7709908974       -4.2388704539      -20.6368601543
 C         7.1170212595       -4.3573129174      -22.7644331788
 C        11.4276323011        0.7317686371      -19.6280057077
 C        12.6925773862       -0.9700860422      -18.3350492144
 C         5.1209972774       -0.7208751749      -17.0427556414
 C         5.8387370105        0.7493845084      -15.1065599034
 C         2.3087896263       -4.8370470731      -14.4613097303
 C         0.7979866840       -2.8228481408      -14.1970019956
 C         2.0797778989        1.6840959241      -10.7475311861
 C         1.2489118512        1.4084676986       -8.3006585663
 C        -5.3549074017        4.1626881465       -8.8448262946
 C        -4.4526837140        2.3823068920       -7.2789090207
 C        -9.0093315927        0.1672378806      -13.8112446629
 C       -11.2122823279        0.8133807262      -12.7149409543
 C       -10.0436375791       -4.3860418063       -7.4875306799
 C       -12.6717188209       -4.5858090011       -7.6275786484
 C       -14.0505333846        0.9866815932       -3.6051181934
 C       -13.0616697169        0.4346975839       -1.3723641728
 C       -16.8913028162       -4.3380761806       -0.2556697033
 C       -19.4399938568       -3.7992788877       -0.0071536260
 C       -16.5838818638       -0.5008474852        6.0743733710
 C       -17.7171276776        1.4737983079        5.0486821854
 H       -14.3427206259        2.2334336138        4.9208967803
 H       -13.3809871031        0.9642076067        4.2938959617
 H       -14.4430420664        0.7059449599        5.8169598165
 H       -18.5564273769       -2.2875043930        4.8792529065
 H       -16.9679963898       -2.7022795771        4.3138999357
 H       -19.3539828709       -2.2082264808        2.5278641387
 H       -18.7216407410       -3.8871251333        2.7600981030
 H       -18.0668947790       -2.2056512930       -2.8975164767
 H       -16.5611040067       -2.7499757006       -2.3083566291
 H       -17.3111991028        0.1864393907       -2.6237759401
 H       -16.2772318758       -0.8372945766       -3.6664952194
 H       -11.5834580795       -1.9170968089       -3.5685535813
 H       -12.2465111837       -0.7293155284       -4.4723653954
 H       -13.1842895674       -1.9554424585       -6.0981712687
 H       -13.5939599346       -3.3595315196       -5.1029004821
 H       -11.1085166707       -3.1909108443      -10.1823738399
 H        -9.6127251655       -2.6511459066       -9.3898505565
 H       -10.3217961938       -0.2105776067       -9.7783720185
 H       -11.8818768677       -0.8257592788      -10.4852690117
 H        -6.9781317501        0.6225578688      -12.1462355474
 H        -7.2418767626        0.0710040133      -10.5562862405
 H        -7.6452771746        2.9170732614      -10.3737331082
 H        -6.0708613663        2.7020243583      -11.2859028637
 H        -3.0780126237        0.4782007498      -10.3820423278
 H        -3.6624830358        0.4603316438       -8.8454956156
 H        -1.3656914130       -0.0260052868       -8.6497397090
 H        -1.4286509058        1.6800787561       -8.1354980980
 H         2.2034026014       -0.9911289071      -11.6819685764
 H         0.6109794293       -0.8159890543      -11.8572822278
 H         0.2836004531       -3.3475014668      -11.1253232464
 H         1.7949347541       -3.2034900965      -10.1702689711
 H         5.0935084836       -3.7505487477      -14.5404763635
 H         4.8239347865       -3.4783412866      -12.7839601100
 H         6.7817444510       -2.6235824571      -13.2535015783
 H         5.7753767336       -1.2064157110      -13.1912757099
 H         8.8122408991        0.2929309518      -15.4168574526
 H         8.0866915752        1.8617695115      -15.9253221252
 H        10.4106747747        1.8171315900      -16.8106106571
 H         9.4616483223        1.3362263789      -18.2001074085
 H        10.5114048170       -1.0569426899      -21.6338645765
 H         8.8217124149       -0.8724599604      -20.7031441168
 H        10.2387880435       -3.4372753004      -21.3283458934
 H         9.1627617562       -2.8262613812      -22.5249824814
 H         9.8950791533       -5.3147561281      -21.2607702123
 H         9.4762479704       -6.8665487603      -21.8485939930
 H        10.8440143173       -7.1889101253      -19.8035447814
 H         9.2276442462       -7.9247679844      -19.7785186470
 H         8.4813675090       -8.2955139627      -15.3965982821
 H         7.4158211842       -7.7830512090      -16.6176687772
 H         7.1898326862       -7.3785456614      -14.8363185101
 H         9.5870481977       -8.9327857223      -16.9021149486
 H        11.3405304485       -8.5594957667      -16.5842720528
 H        10.8227297339       -8.6351048975      -18.1659367051
 H        10.9604287802       -4.9125249396      -16.4995679931
 H        12.1883442045       -5.9910141296      -17.2630212222
 H        11.6892059632       -6.3724342802      -15.6129445793
 H         5.0316391941       -5.1182836233      -20.7835816099
 H         5.3562533374       -3.3224516040      -21.0358162056
 H         5.8712191792       -4.1589102683      -19.5692030187
 H         6.4496120347       -5.1107820038      -23.0480050388
 H         8.0342221611       -4.7570602684      -23.1661470973
 H         6.8457233009       -3.3685579991      -23.0588212042
 H        10.5372367689        1.2083814821      -19.9450433553
 H        12.2538387879        0.6004604087      -20.2924442866
 H        11.7348135808        1.4608246084      -18.8206954117
 H        13.3005413327       -0.0927935118      -18.0767979642
 H        13.2033804848       -1.6791012708      -18.9706774859
 H        12.6745887908       -1.6590379378      -17.4150981671
 H         4.2736062804       -1.0275502252      -16.4543564740
 H         5.3517396898       -1.5185856187      -17.7567608480
 H         4.8773394623        0.1379926621      -17.5580539417
 H         6.6172606842        1.0866191607      -14.5088024956
 H         5.1506954835        0.3678529531      -14.4089705294
 H         5.3180753059        1.5340819868      -15.7048552676
 H         1.4569562548       -5.4497461709      -14.2773112244
 H         3.2188129231       -5.3746472102      -14.1262224873
 H         2.2706688138       -4.7722812825      -15.5292743947
 H        -0.0032901484       -3.5884436104      -14.1895567426
 H         0.8486405920       -2.5703307951      -15.2724905268
 H         0.5987031373       -1.8027179071      -13.7861276119
 H         2.5387908881        0.9656369156      -11.4269872066
 H         2.9039220332        2.2188530359      -10.3123482611
 H         1.4586193214        2.3244503053      -11.3935081849
 H         2.2850395068        1.2228299515       -8.0132645793
 H         0.5329834480        0.9042508113       -7.6484764069
 H         1.2527531519        2.4488353265       -8.1300673721
 H        -5.6957291702        4.5906307114       -9.7934186133
 H        -4.5971159241        4.8700992834       -8.4293397841
 H        -6.2050632069        4.3054582807       -8.2016793316
 H        -4.9366037181        3.0395478028       -6.5248743537
 H        -3.3655535726        2.5301026429       -7.3104178279
 H        -4.5618097858        1.2673940059       -6.9379379395
 H        -8.6137027588        1.1438113194      -14.1107353771
 H        -9.4738817986       -0.2172789822      -14.7105994102
 H        -8.1790609167       -0.5201283654      -13.7126217596
 H       -11.7521929038        0.1938730988      -13.3999038025
 H       -11.2198084981        1.8178518176      -13.2037884106
 H       -11.8264177368        0.8750036071      -11.7645918242
 H        -9.3033063652       -3.6167464956       -7.5200408174
 H       -10.0672415295       -5.1038494961       -8.3000408267
 H        -9.9140973176       -4.8876131470       -6.5074798991
 H       -12.4932094632       -5.5248104191       -6.9896773217
 H       -12.6537387314       -5.0316524036       -8.6140649615
 H       -13.6233484099       -4.0645874668       -7.5249062446
 H       -14.8050354621        1.6149900749       -3.3284531119
 H       -14.2271086531        0.6651555037       -4.6466042610
 H       -13.2021315190        1.6388821060       -3.6460268688
 H       -13.6675241587        1.1929978935       -0.8271674253
 H       -12.0932888812        0.7780352638       -1.6356849536
 H       -12.9000304640       -0.4407306227       -0.7193144429
 H       -16.8294673482       -5.1384190272        0.4571240275
 H       -15.8702345360       -3.8950610189       -0.3439316880
 H       -17.0918390709       -4.8982571191       -1.1624515689
 H       -19.4859106209       -4.7178218461        0.5648174621
 H       -19.5918536792       -4.0574287797       -1.1207475193
 H       -20.1540832984       -2.9700231029        0.2023474396
 H       -15.8774029548       -1.2867973444        5.7951362725
 H       -17.5523188071       -0.6677933363        6.5334174072
 H       -16.2183851497        0.1643048997        6.8205437611
 H       -17.2177294148        2.1938186007        5.6439571944
 H       -18.5483278121        1.1337000423        5.6202973910
 H       -17.9452143615        1.9084522266        4.0463978461
 Na      -16.9683830349        0.0993232096        1.1330961205
 Na        8.6237645249       -3.1039494814      -17.5012669735
