232

 C       -14.5502030234        1.4609549588        4.8724910872
 C       -15.6808401819        0.8473020537        4.0366137451
 O       -15.5539362562        0.7490071191        2.8072094123
 C       -16.9001994936        0.2798210540        4.7525582791
 C       -17.7445854559       -0.6428486886        3.7920938520
 O       -18.3322681105       -0.1065370285        2.8381717837
 C       -17.8969692838       -2.1531738037        3.9848701094
 C       -18.4786450709       -2.8485919129        2.7678628616
 C       -17.4144679356       -2.7523039119        1.6526529568
 O       -16.3468427389       -2.2586765846        1.8317315553
 C       -17.8716530395       -3.2603423576        0.1604634829
 C       -17.9750699302       -1.9840898184       -0.8954309173
 O       -18.3680034741       -0.8906978601       -0.4969553912
 C       -17.4131969321       -2.0323718051       -2.3048173324
 C       -16.6722854969       -0.6517015431       -2.7814607928
 C       -15.4335552066       -0.1013718455       -1.8415583567
 O       -15.6894885275        0.4654652213       -0.7955359018
 C       -13.9507611164       -0.1072014249       -2.4058476068
 C       -13.5517820295       -1.5512458035       -2.9955355283
 O       -14.0102818448       -2.4933999901       -2.4209676633
 C       -12.4450681596       -1.6809882927       -4.0198286742
 C       -12.9149052828       -2.4342322118       -5.2304359171
 C       -11.6711109098       -3.2632018284       -5.8561814855
 O       -10.7269692259       -3.4651573977       -5.1484151727
 C       -11.5816000727       -3.8025924343       -7.4029074350
 C       -11.5393000998       -2.5119310660       -8.2397003319
 O       -12.4303590970       -1.7576786063       -8.0356255517
 C       -10.4712192768       -2.2870336267       -9.3136736326
 C       -10.6857115308       -1.0929920607      -10.1787381049
 C       -10.0301121995       -1.0755590235      -11.5823667353
 O        -9.6293866964       -2.1035276083      -12.0961065743
 C        -9.8755087780        0.4058239836      -12.2994700232
 C        -9.0386321963        1.3234585175      -11.4256718292
 O        -9.5326757140        2.3631709241      -10.9185710805
 C        -7.5494726644        1.0904295762      -11.1564912462
 C        -6.9084258518        2.2045227886      -10.3211340320
 C        -6.1341841290        1.6851874820       -9.0699873722
 O        -6.4580890233        0.7570584956       -8.3818750629
 C        -5.0305206169        2.6179186726       -8.6861182343
 C        -3.6475398079        2.5083069149       -9.6316685759
 O        -3.2738833763        3.3655507040      -10.3254792758
 C        -3.0896483246        1.0343554373       -9.7935009336
 C        -1.7243413940        1.0103510712       -9.0239441807
 C        -0.6048962384        1.6195603186       -9.9658028037
 O        -0.8534338385        2.4408480401      -10.8284518721
 C         0.9339690543        1.0687443183       -9.9100627783
 C         1.0248840131       -0.5746540849       -9.9739122476
 O         0.6478783091       -1.3004503732       -9.0749770530
 C         1.5359539221       -1.3142944783      -11.2391499574
 C         1.6278704728       -2.8076234046      -11.0422768099
 C         2.4121682976       -3.7044275215      -12.1065034007
 O         3.0169293928       -4.7494566996      -11.8143255448
 C         2.3627117493       -3.3713968513      -13.6397869966
 C         3.5271939917       -2.3947327986      -13.9247595863
 O         3.3238096683       -1.2258642888      -14.1524275216
 C         4.9264488743       -2.9613408915      -13.9392007658
 C         5.9695792009       -1.7383842835      -13.9492731669
 C         6.5276723332       -1.7006138827      -15.3452742050
 O         7.1817540138       -2.5935079579      -15.8473682386
 C         6.1755325086       -0.4821398448      -16.2554300434
 C         7.4290043041       -0.0622095734      -17.0118633605
 O         7.6678677493       -0.4367101819      -18.1305281050
 C         8.5647984341        0.8715914731      -16.2053740609
 C         9.8706703253        1.0819126014      -17.1106288110
 C        10.5249738494       -0.3542972231      -17.4666431462
 O        10.3023150886       -1.2821131296      -16.7307369614
 C        11.4474812345       -0.5084795699      -18.7913505161
 C        10.7085628421       -1.6648109853      -19.6063522291
 O        10.8561847782       -2.7196194296      -19.0053428946
 C         9.9331838965       -1.3964361803      -20.8436125052
 C         9.2523373114       -2.6801916377      -21.4614541915
 C         8.0535964647       -3.3919575689      -20.6543938794
 O         7.6622034953       -2.9057290581      -19.6003315345
 C         7.1528777592       -4.5398920009      -21.2313251481
 C         7.6827888323       -5.9815932044      -20.9072165698
 O         6.8825610774       -6.8995171697      -20.7185235658
 C         9.1964550940       -6.3634173892      -21.0217723536
 C         9.6531449563       -7.1551691272      -19.7771099488
 C         9.4718216287       -6.3952937350      -18.4824233352
 O         8.8049040850       -5.3939885226      -18.6102389094
 C        10.0182312922       -6.8030679071      -17.0686512155
 C         8.8273369812       -6.4562426940      -16.0777898879
 O         8.8234727639       -5.3049746417      -15.6969162619
 C         7.7064596316       -7.5148227396      -15.6368306858
 C        10.2033017056       -8.4127395354      -17.0915455579
 C        11.3181142481       -6.1969918088      -16.6115180783
 C         5.7257684173       -4.5579709623      -20.6270823710
 C         6.9840761363       -4.3911330303      -22.8081584281
 C        11.6567282497        0.8977120413      -19.6355551032
 C        12.7464233445       -0.9638351198      -18.1372819943
 C         5.0728348062       -0.9674368805      -17.2184649102
 C         5.5979170537        0.7203012454      -15.5225736918
 C         2.6120990802       -4.6780399374      -14.4886702689
 C         1.0188867956       -2.6299004226      -14.1102368462
 C         1.6346324510        1.8251082572      -10.9362968255
 C         1.4574912509        1.3486236797       -8.4522732923
 C        -5.5447141541        4.1156087357       -8.7424707815
 C        -4.7171573201        2.3143403150       -7.1470560568
 C        -9.0804373590       -0.0479885918      -13.6251205049
 C       -11.2363872313        1.0646595342      -12.6593938779
 C       -10.3258991589       -4.7401293083       -7.5420803197
 C       -12.9467925833       -4.7208899839       -7.6448078275
 C       -13.9928311203        0.9724498720       -3.5971668868
 C       -12.9916138269        0.2052829804       -1.3419626238
 C       -16.8278974278       -4.3331675396       -0.3210810022
 C       -19.2564253764       -3.9545685955        0.1922069686
 C       -16.4946693660       -0.2977543148        6.1640004407
 C       -17.7888772047        1.5934286042        4.8818485840
 H       -14.7387150188        2.1575254536        5.6993411089
 H       -13.9449097478        1.9908366513        4.0909614010
 H       -13.9543550941        0.6482211586        5.2026591011
 H       -18.6275768440       -2.3365331698        4.8156901522
 H       -17.0352228248       -2.7053674568        4.2798927597
 H       -19.3846753854       -2.3251116943        2.4620623920
 H       -18.6269735995       -3.9616405955        3.0107447510
 H       -18.2622602686       -2.1653057193       -3.0323364674
 H       -16.7428499947       -2.9173656021       -2.4516006153
 H       -17.4647507919        0.1583004980       -2.6779462407
 H       -16.4612897236       -0.8328238343       -3.8340862716
 H       -11.4888522659       -2.0837226526       -3.6087626014
 H       -12.1697483196       -0.6400928742       -4.3370469581
 H       -13.2611664751       -1.6959650431       -5.8952963383
 H       -13.7870841433       -3.0804505089       -5.0042611253
 H       -10.4222523106       -3.3232115518       -9.7724617154
 H        -9.5009486877       -2.2215282477       -8.8240749863
 H       -10.3236559561       -0.1753356752       -9.6593670080
 H       -11.7303536242       -1.0528904210      -10.3542573017
 H        -7.0087678946        0.7626554086      -12.0598066408
 H        -7.4974376421        0.1326360276      -10.7243864242
 H        -7.6411738042        2.9753652466      -10.1046593137
 H        -6.2602460993        2.6847721166      -11.0226164089
 H        -2.9705552876        0.6831014678      -10.7812388129
 H        -3.7287635830        0.2157903089       -9.3860070949
 H        -1.5883935642        0.0014588800       -8.7585372294
 H        -1.8132377064        1.6210055371       -8.1219883730
 H         2.5311786156       -0.9375139433      -11.5350093625
 H         0.9430183380       -0.8575408203      -12.0580430712
 H         0.6665734682       -3.3420081182      -10.9555297104
 H         2.2101382226       -3.0319142241      -10.1386036566
 H         5.0511267174       -3.5289629625      -14.8447822806
 H         5.1815900822       -3.5265559509      -13.0460255837
 H         6.7637715676       -2.0617873662      -13.2957010108
 H         5.4499107230       -0.9276956094      -13.4434095076
 H         8.7907020360        0.5732410219      -15.1761424342
 H         7.9371660032        1.7886287039      -16.1612438848
 H        10.5466048159        1.6572664116      -16.4665314910
 H         9.8130859130        1.7915770527      -17.9311386145
 H        10.6293746400       -1.0151814527      -21.5659304944
 H         9.1348794790       -0.7575689043      -20.6107122605
 H        10.0384520411       -3.4122042016      -21.5612964663
 H         8.9711449366       -2.4375993260      -22.4979571616
 H         9.7485051295       -5.4999410208      -21.2003792065
 H         9.2989246032       -6.7865525636      -22.0099304176
 H        10.6803650816       -7.5209766883      -19.7617557042
 H         9.0626562852       -8.0909569376      -19.8326159197
 H         7.9041798899       -8.5633912376      -15.3624781175
 H         6.9921448486       -7.5426537585      -16.5743141171
 H         7.2967242795       -7.0917760432      -14.7388731222
 H         9.4320833990       -8.9064859911      -17.6954859573
 H        10.2884928607       -8.7348514043      -16.0797288788
 H        11.2386319547       -8.7273845653      -17.4783195955
 H        11.1513030189       -5.1478246158      -16.5343714879
 H        12.1297466442       -6.2740633259      -17.3004258135
 H        11.6638430972       -6.6288828534      -15.7261896640
 H         5.3575002826       -5.5230511359      -20.5954877778
 H         5.0615763546       -3.8332126523      -21.1259854125
 H         5.7702925349       -4.2185933450      -19.5602821643
 H         6.1001533577       -4.8586751777      -23.2542904253
 H         7.8215018164       -4.8099144011      -23.3464980327
 H         6.9250253439       -3.2883088076      -22.8464683640
 H        10.6286232603        1.3278327400      -19.7418457682
 H        12.2335662148        0.6579314948      -20.5831047594
 H        12.1736618206        1.6839580788      -19.1238172993
 H        12.7857658928       -0.4497379146      -17.1795199472
 H        13.7165933682       -0.8811089352      -18.6600851864
 H        12.7679756514       -1.9857846755      -18.0249746841
 H         4.3178029040       -1.3559679649      -16.5161544214
 H         5.3736195712       -1.8229681836      -17.8306941712
 H         4.6733274287       -0.1242201028      -17.9290344213
 H         5.9511901218        0.7721762452      -14.4644545375
 H         4.4913658615        0.5451204343      -15.3881468436
 H         5.6862529223        1.5895324851      -16.1012018337
 H         1.7644423859       -5.4137188860      -14.3797620337
 H         3.5980541448       -5.1060340393      -14.4006239043
 H         2.5136064607       -4.4090677433      -15.5597132762
 H         0.1836116361       -3.1065681342      -13.6958171995
 H         0.8790611318       -2.7889423693      -15.1546111702
 H         1.1011713167       -1.5549783911      -14.0970821608
 H         2.2727690918        1.1399102761      -11.4415331308
 H         2.3341979495        2.4826674739      -10.4519237521
 H         0.9869622891        2.3034578127      -11.6414169668
 H         2.5046346349        1.0475646171       -8.4930547615
 H         0.8150997677        0.9144774071       -7.6738381650
 H         1.5526912496        2.4450739635       -8.1738033120
 H        -5.4335209085        4.5164432488       -9.7485721707
 H        -4.8371988514        4.7165511911       -8.2120602257
 H        -6.5883113455        4.3990370097       -8.5454640817
 H        -5.6428382174        2.4488484562       -6.6154815583
 H        -3.8433890050        2.8807161911       -6.7968141939
 H        -4.4630875145        1.3356171077       -7.0147219964
 H        -9.3359822638        0.5461800344      -14.4866142321
 H        -9.2869297550       -1.0248520299      -13.9907676985
 H        -7.9989528201       -0.1003277903      -13.4654894633
 H       -12.1285135621        0.4518908046      -12.9325340459
 H       -11.1200732458        1.7261297774      -13.4929150511
 H       -11.5396500573        1.5689965383      -11.7701137014
 H        -9.4072138209       -4.1289775574       -7.3670234800
 H       -10.3718403403       -5.1680297946       -8.5371633898
 H       -10.5125398433       -5.4910327468       -6.8307894314
 H       -12.9543037553       -5.3868422846       -6.8638946181
 H       -12.8465242369       -5.3506052434       -8.5461116953
 H       -13.8454519391       -4.1234879899       -7.7447547994
 H       -14.7362354670        1.7960892654       -3.3696810322
 H       -14.2742451189        0.5712111278       -4.5247330975
 H       -13.0222751062        1.4972962883       -3.7695286902
 H       -13.2014214608        1.2207717296       -1.1575479652
 H       -11.9131965353        0.0170915435       -1.5898890792
 H       -13.2608515004       -0.3598973033       -0.4659865276
 H       -17.0521496364       -5.3677614696       -0.0315936045
 H       -15.8092793514       -4.0698090516       -0.2109831602
 H       -16.9383227077       -4.4839987333       -1.3631148599
 H       -19.3260150385       -4.6561765184        1.0162433984
 H       -19.3647091264       -4.4050412111       -0.7023516359
 H       -19.9872968055       -3.1777211357        0.1689486762
 H       -15.8457023761       -1.1113579882        6.0765368535
 H       -17.4478621772       -0.3606740352        6.7177414752
 H       -15.9738968085        0.4753299375        6.7238886037
 H       -17.1328619281        2.3831239635        5.3576251725
 H       -18.6403877680        1.3252352456        5.5940779081
 H       -18.1331051535        1.9019250862        3.9134801562
 Na      -16.9114666361        0.2073968946        0.9756924327
 Na        8.9609768818       -3.2479436838      -17.4095953781
