232

 C       -14.6698301607        1.5697327357        4.8031003127
 C       -15.6381864911        0.7824064618        3.9755532063
 O       -15.5588965921        0.6802267246        2.7539779318
 C       -17.0321155713        0.4030135338        4.7897658963
 C       -17.8421169535       -0.5510328246        3.8308741999
 O       -18.3375844209       -0.0798893962        2.7783217417
 C       -17.7968118246       -2.0565794481        4.0652089577
 C       -18.3994802037       -2.9201278945        2.8006787587
 C       -17.4342766407       -2.7265174988        1.6138643297
 O       -16.3185059946       -2.3114751127        1.7797639583
 C       -17.8512790756       -3.1575999080        0.1089459170
 C       -17.7533120221       -1.9470640960       -0.8010470574
 O       -18.3214095174       -0.9225644010       -0.5097350340
 C       -17.1665852171       -2.0465155595       -2.2840905197
 C       -16.6509083043       -0.6694535401       -2.7302070131
 C       -15.5267533875       -0.1325416597       -1.9326573648
 O       -15.6964019667        0.5769350421       -0.9556243976
 C       -14.0448403787       -0.1183944881       -2.4660851038
 C       -13.5709792376       -1.5639875833       -2.9491122840
 O       -13.9968409303       -2.5526390603       -2.3876945039
 C       -12.4485662776       -1.6917423797       -4.0528585392
 C       -12.8466672809       -2.4840303765       -5.3494986192
 C       -11.6924238773       -3.3934267767       -5.8515663575
 O       -10.7043248880       -3.5115547896       -5.1045956620
 C       -11.7423635867       -3.9184853883       -7.2657780454
 C       -11.6635874488       -2.6414416585       -8.2712596239
 O       -12.4843892670       -1.7497452215       -8.2086459048
 C       -10.3596696089       -2.2909003817       -9.1927034624
 C       -10.7634610434       -1.0164778668      -10.0202838853
 C       -10.0434410908       -1.0432121653      -11.4247752655
 O        -9.6633042903       -2.0773504013      -11.8712489797
 C        -9.9454294217        0.3465082884      -12.2795644628
 C        -9.0754543889        1.4251839177      -11.4326606598
 O        -9.6390285321        2.3836187093      -10.9981419019
 C        -7.5746983026        1.0692300441      -11.0174594705
 C        -6.9011333940        2.1779335867      -10.2997033113
 C        -6.1190703617        1.7492755639       -9.0484860922
 O        -6.4243689214        0.7506686853       -8.4383246358
 C        -4.9307685242        2.6600358273       -8.6322672338
 C        -3.8352268907        2.3793493725       -9.6033953939
 O        -3.4846879021        3.3775939860      -10.1851965626
 C        -3.1702893589        1.0723255685       -9.7579605694
 C        -1.7081980299        0.9263150056       -9.1263473434
 C        -0.6371161831        1.6212296039       -9.9618740014
 O        -0.8921478705        2.5989071436      -10.6734316767
 C         0.9367956499        1.0011787770       -9.9128736178
 C         0.9373217637       -0.6126530464      -10.0894416970
 O         0.5076892934       -1.2998229267       -9.1832427756
 C         1.7856359934       -1.2407886757      -11.2769171307
 C         1.8240159155       -2.7609072650      -11.0145871802
 C         2.4921365782       -3.6385365067      -12.0869107389
 O         3.1913722380       -4.5209391842      -11.6565059890
 C         2.4076299387       -3.3246592588      -13.6903597907
 C         3.5330700714       -2.3253721939      -13.9953146351
 O         3.3089043332       -1.1238781171      -14.2304852979
 C         4.9775098682       -2.9303326872      -13.8875432726
 C         6.1149632195       -1.7834469023      -14.0086816536
 C         6.5398918396       -1.7172985401      -15.4185673332
 O         7.2005286378       -2.6362877435      -15.8984066064
 C         6.1696035074       -0.4624000885      -16.3647369302
 C         7.4944401174       -0.0147115671      -17.1079397320
 O         7.7334290391       -0.4103198682      -18.2425135181
 C         8.5359414763        0.8225213104      -16.3079098716
 C         9.8632538447        1.0244843762      -17.0206992030
 C        10.4623311910       -0.2582599561      -17.3712656799
 O        10.3150609702       -1.2289553764      -16.6463103857
 C        11.4173434380       -0.4756367021      -18.6441076140
 C        10.7633524307       -1.6527105258      -19.5163838711
 O        10.8448733522       -2.7715381590      -19.0606608286
 C         9.8857474826       -1.4055416883      -20.7816046691
 C         9.1584177400       -2.7130519760      -21.3969554834
 C         8.0112395326       -3.3406275145      -20.5884946597
 O         7.8399957084       -3.0220791625      -19.4110458849
 C         7.1044392493       -4.5205977656      -21.2527227707
 C         7.7246289509       -6.0664469629      -20.9653692758
 O         6.9458224537       -6.9627130523      -20.6408974576
 C         9.2195499089       -6.4924881918      -21.0129046461
 C         9.5771794974       -7.2241146293      -19.8306751746
 C         9.4035844368       -6.4330491023      -18.5358307234
 O         8.8433464136       -5.3523447131      -18.5740213694
 C         9.8612526741       -6.9485318202      -17.1046857029
 C         8.7793619165       -6.4287358105      -16.0653456447
 O         8.8396166465       -5.2876489433      -15.7089339445
 C         7.8091181921       -7.3910522470      -15.6553234323
 C        10.0338102333       -8.5662409254      -17.0431394290
 C        11.1725938203       -6.1920909784      -16.8052668668
 C         5.6445936403       -4.5250359344      -20.7241307884
 C         7.0039658263       -4.4830324915      -22.7649188295
 C        11.6829479528        0.7578877155      -19.6153273080
 C        12.8649392620       -0.8704156573      -18.1843457774
 C         5.1414190271       -1.1116877373      -17.4016964323
 C         5.5325048308        0.8836838222      -15.7414225190
 C         2.6960290849       -4.6040817857      -14.5252491298
 C         1.0796964663       -2.6403446893      -14.1551869602
 C         1.6336592355        1.7476075918      -11.1378273994
 C         1.5126450733        1.2847931883       -8.5079471453
 C        -5.4432575012        4.1203428608       -8.6791887053
 C        -4.6550618472        2.3362987525       -7.0327017636
 C        -9.2037572888        0.0074967396      -13.6272405028
 C       -11.2613913875        1.0227755224      -12.6150559877
 C       -10.4867668922       -4.8727133817       -7.5088954312
 C       -13.0939231246       -4.5926807517       -7.6589825573
 C       -13.9911029077        0.8789781720       -3.6003265963
 C       -12.9782382735        0.1370761591       -1.3158628922
 C       -16.7367961069       -4.1880489184       -0.3182307367
 C       -19.2488776457       -3.9527179778        0.1973376458
 C       -16.6714308767       -0.2597800889        6.0861130830
 C       -17.8153657062        1.7173022578        5.0125691231
 H       -14.9622786278        1.7285184957        5.8395113029
 H       -14.4851098024        2.5191527211        4.3347467082
 H       -13.7035693504        0.9903696761        4.7731123481
 H       -18.4789053273       -2.2656809045        4.8649179859
 H       -16.8369120998       -2.4917902205        4.4357307149
 H       -19.3958232844       -2.5097863027        2.5373054100
 H       -18.4059512735       -3.9713921792        3.0610582552
 H       -18.0495971095       -2.2481601184       -2.9661275760
 H       -16.4176705980       -2.8021659070       -2.5019480943
 H       -17.4829398229        0.0497310660       -2.7208264439
 H       -16.3386367694       -0.8389084159       -3.7796789488
 H       -11.5501707510       -2.2981744896       -3.6050464071
 H       -11.9878303625       -0.7045494521       -4.2146829608
 H       -13.1963195021       -1.7861016360       -6.1213935050
 H       -13.6920884467       -3.0835245984       -5.0894900447
 H       -10.1154897423       -3.1584228522       -9.7596164043
 H        -9.3808003191       -2.0670286041       -8.6646757890
 H       -10.4206958338       -0.1153193449       -9.5399685999
 H       -11.8413985999       -1.0412793750      -10.2122309414
 H        -7.0154423100        0.5684690110      -11.7718042153
 H        -7.6586734198        0.0819014585      -10.4558542926
 H        -7.6179980490        3.0041721960      -10.0495816909
 H        -6.3181710903        2.6749459038      -11.0842877085
 H        -3.1711865584        0.7448271931      -10.7778541517
 H        -3.7045084429        0.1919848879       -9.2990653945
 H        -1.6176723945       -0.1476758828       -9.0589811570
 H        -1.7237658958        1.3917688911       -8.1067398441
 H         2.7453246090       -0.7002698848      -11.4514776710
 H         1.2267578217       -0.8979268115      -12.1838791986
 H         0.8524908602       -3.1348533521      -10.8686395890
 H         2.4044076639       -3.0962211319      -10.1540956419
 H         5.1538296505       -3.6446030980      -14.7720532844
 H         5.1711831548       -3.4075031775      -12.9119867011
 H         6.9886320574       -2.0813525542      -13.4436161879
 H         5.6546143297       -0.9409320349      -13.4761644166
 H         8.6114023885        0.2664734295      -15.3743051928
 H         8.0416630134        1.7687510765      -16.0221032674
 H        10.5102490065        1.6316009057      -16.4475685829
 H         9.8232907251        1.6873901066      -17.8898642167
 H        10.5548495121       -1.0477974682      -21.5763076660
 H         9.0479790393       -0.7259768212      -20.5959470201
 H         9.9007482677       -3.5030952799      -21.5919624580
 H         8.7802732710       -2.3853995112      -22.3863218667
 H         9.8360135565       -5.5845932747      -20.9913134876
 H         9.4730046744       -6.8072291883      -21.9964697809
 H        10.6000269529       -7.6368860542      -19.9523631421
 H         8.9796805198       -8.1492933755      -19.7166433784
 H         8.1948865660       -8.3828676309      -15.4620226871
 H         7.2061368771       -7.5316254526      -16.5313337554
 H         7.3234572246       -7.0627910940      -14.7365964149
 H         9.5997386709       -9.0687222214      -17.8626855287
 H         9.8125667089       -8.9764274145      -16.0403763649
 H        11.1439434838       -8.8135528963      -17.1210067220
 H        10.9698520338       -5.1706433680      -16.9332406285
 H        11.9238522994       -6.3571400558      -17.4879943160
 H        11.5855682811       -6.4458591418      -15.8439898919
 H         5.1400342964       -5.4664497723      -20.9560868616
 H         5.1165269637       -3.6350593148      -20.9593627306
 H         5.7251051640       -4.5005994406      -19.6511471717
 H         6.3623522092       -5.2646284643      -23.1324340871
 H         7.9817020013       -4.5772154176      -23.3268869111
 H         6.4886870716       -3.4752451433      -22.8829171961
 H        10.7319577284        1.1273690599      -19.9589588408
 H        12.3432433089        0.3670768015      -20.4061133777
 H        12.1924455937        1.5928887105      -19.1602467039
 H        13.0229884971       -0.5670424020      -17.1966854652
 H        13.7020976501       -0.5390232686      -18.7676174196
 H        13.0470211319       -1.9129056787      -18.3308177042
 H         4.3015693754       -1.6300618145      -16.9148434963
 H         5.7280555007       -1.8969187567      -17.9780474046
 H         4.8640645758       -0.3733715253      -18.1463071209
 H         5.9268441403        0.9184362966      -14.7474485944
 H         4.4511793155        0.6861910592      -15.5185126229
 H         5.5952632525        1.8325164444      -16.3461669863
 H         1.7985821415       -5.2533880583      -14.5898180001
 H         3.6461579440       -5.1143338228      -14.2421669057
 H         2.9033222730       -4.3064095322      -15.5535560900
 H         0.3685802909       -2.8568857856      -13.4062874046
 H         0.6694821243       -3.0284912120      -15.0405314038
 H         1.2570866371       -1.5689622673      -14.4022664378
 H         2.4261791877        1.1053303727      -11.4988805340
 H         2.1392216859        2.6455875339      -10.8192264788
 H         0.9075434002        1.8901654357      -11.9743144527
 H         2.6464950420        1.2271374430       -8.6806797283
 H         1.0767616617        0.8197242121       -7.5997222242
 H         1.3596610330        2.3423971691       -8.3040004636
 H        -5.4289190914        4.6213842079       -9.6284496219
 H        -4.8041997422        4.7978428017       -8.0369016739
 H        -6.4855024825        4.1938981001       -8.4562213648
 H        -5.5633212093        2.0521516662       -6.6220792452
 H        -4.0908174463        3.0412087250       -6.5226449644
 H        -4.0670899679        1.4260385665       -6.9931999912
 H        -9.4452879053        0.6986770810      -14.4517083180
 H        -9.4451609987       -0.9224949989      -14.0849108615
 H        -8.1065602564       -0.0862519681      -13.4235907434
 H       -12.1478167759        0.4682934609      -12.8435358580
 H       -11.1397550574        1.6479905019      -13.4391288599
 H       -11.5289382052        1.5381760838      -11.6720737909
 H        -9.6548597445       -4.3316051428       -7.0246497883
 H       -10.3540697237       -4.8203224767       -8.5821167231
 H       -10.6930069808       -5.8746496174       -7.2080673826
 H       -13.3266207452       -5.4061518641       -6.9556101078
 H       -12.9173244191       -4.9769101013       -8.6669926921
 H       -13.8710421707       -3.8752077141       -7.7148457628
 H       -14.3212287031        1.8702239603       -3.3158012142
 H       -14.7014528157        0.5459388647       -4.4424428939
 H       -12.9689764005        1.0024226449       -4.1228329292
 H       -12.8253836446        1.1788029950       -1.1138329335
 H       -12.0362300745       -0.3427718963       -1.5991446306
 H       -13.3922605571       -0.3809192419       -0.4257394733
 H       -16.8399603764       -5.1354284713        0.2457215403
 H       -15.6828144380       -3.8090303222       -0.4095399212
 H       -16.9351366726       -4.5824097190       -1.2682930040
 H       -19.1401809245       -4.7410104773        0.8760262588
 H       -19.4575174364       -4.2436460604       -0.8254394572
 H       -20.0616609120       -3.2623028486        0.4385962520
 H       -15.8522853557       -0.9645204030        5.8348761990
 H       -17.6555757651       -0.6841016405        6.5247617558
 H       -16.2564792073        0.4149013595        6.7925648686
 H       -17.1481831146        2.3438077688        5.5986975473
 H       -18.7381804891        1.4806610895        5.5895373000
 H       -18.0860636215        2.1823160634        4.0437469832
 Na      -16.9163063309        0.2279999954        1.0300305599
 Na        9.0769343454       -3.3079678308      -17.3245011326
