232

 C       -14.7298882771        1.6867213328        4.7138612071
 C       -15.7296223003        0.9208793758        3.9414443646
 O       -15.4903693940        0.6211859190        2.8230995772
 C       -17.0805630970        0.4508240019        4.7398425363
 C       -17.8701666135       -0.5398320137        3.7302562131
 O       -18.4228306711       -0.0493757896        2.7713151542
 C       -17.8252232785       -1.9674580994        4.1044393290
 C       -18.2913566341       -2.8515281211        2.8347823842
 C       -17.3799274817       -2.7189587511        1.5794165479
 O       -16.2326054069       -2.2232222002        1.6767114756
 C       -17.7662338239       -3.2632264889        0.1638940663
 C       -17.7761867507       -1.9253424985       -0.8277330829
 O       -18.2638789785       -0.8839441538       -0.4526486816
 C       -17.0044408351       -2.0658650684       -2.1623329160
 C       -16.6323148207       -0.7001265719       -2.7580308430
 C       -15.5047034711       -0.0383499183       -2.0035103989
 O       -15.6922903531        0.6255369031       -0.9866504097
 C       -14.0440353875       -0.2283062610       -2.5951977141
 C       -13.6354677162       -1.6562900252       -3.0126396164
 O       -14.0505519259       -2.6663873302       -2.4181324758
 C       -12.5204431865       -1.7872289930       -4.0250029116
 C       -12.8507621330       -2.5596617919       -5.3429244266
 C       -11.6450723429       -3.3460364574       -5.8078651337
 O       -10.6944366223       -3.6290941374       -5.1257608465
 C       -11.7816812159       -3.8175969034       -7.3943825961
 C       -11.6522307880       -2.6031929898       -8.2146591024
 O       -12.6641923316       -1.8814273089       -8.2998702597
 C       -10.4378292155       -2.2387086335       -9.0781468555
 C       -10.7428409270       -0.8931874056       -9.8863167326
 C       -10.0587024615       -0.9529196823      -11.2979956237
 O        -9.6462239525       -2.0156866189      -11.7158154802
 C        -9.9232116056        0.3210589673      -12.1678155093
 C        -9.1359120277        1.3498190521      -11.3479366292
 O        -9.6349550229        2.3937919552      -11.0868921971
 C        -7.7498393801        0.9981614279      -10.9021736237
 C        -6.9272620925        2.1470943736      -10.3185300764
 C        -6.2457141822        1.7523441520       -9.0118958917
 O        -6.4507761527        0.6128276867       -8.5384931378
 C        -5.0879999850        2.7641555339       -8.3958732852
 C        -3.7633017360        2.5342627902       -9.4245089492
 O        -3.5369790593        3.3899869409      -10.2982392744
 C        -3.1881642356        1.0430380452       -9.6305588919
 C        -1.6928564787        0.7667365864       -9.2003461807
 C        -0.7104610916        1.5251261615      -10.0086534502
 O        -0.8056382839        2.6183724499      -10.4508450187
 C         0.8583657127        0.9590652722      -10.0559266021
 C         0.9396375544       -0.5191881680      -10.1692830728
 O         0.3235248265       -1.2106767339       -9.3866349020
 C         1.8665636635       -1.1181853721      -11.2194855113
 C         1.8858830267       -2.6768577857      -11.0347667016
 C         2.6535841373       -3.4992047547      -12.1263153274
 O         3.3991831701       -4.3611488474      -11.7610276384
 C         2.4372972781       -3.2499582353      -13.6820630493
 C         3.6171005753       -2.2332064169      -13.9910120800
 O         3.4508623654       -1.0772888886      -14.2889735354
 C         5.0170290088       -2.7761172368      -13.7896601380
 C         6.1903606606       -1.7747275562      -14.0151380244
 C         6.6373837888       -1.6240417604      -15.5233691464
 O         7.2470833579       -2.5693464122      -16.0164372692
 C         6.2284971522       -0.4767811146      -16.5485853159
 C         7.5819337475       -0.0235878754      -17.2235859967
 O         7.8664053863       -0.3335679220      -18.3621888502
 C         8.4678477446        0.8117812360      -16.3753043473
 C         9.7704997443        1.0284296618      -17.0152012381
 C        10.4845527337       -0.2740556440      -17.3537991614
 O        10.3259199228       -1.2578028409      -16.6306530781
 C        11.4124247660       -0.5589558596      -18.7098513066
 C        10.6980547568       -1.7894302636      -19.4129950637
 O        10.8567749610       -2.9489015394      -19.0605109831
 C         9.7483495077       -1.4465395930      -20.6354246055
 C         9.1221543636       -2.6981094136      -21.3207593446
 C         8.0689559027       -3.4449365431      -20.4435882193
 O         7.8782242177       -3.1906424413      -19.2940332933
 C         7.1582558752       -4.5908856151      -21.2016223870
 C         7.6994137246       -6.0333628034      -20.8935971069
 O         6.9648097507       -6.9134663168      -20.5954479793
 C         9.2216731754       -6.3738215874      -21.0175737634
 C         9.5547732992       -7.3147307867      -19.7902297389
 C         9.2338869021       -6.5513104722      -18.5185084125
 O         8.9601096088       -5.3673155897      -18.6352458389
 C         9.8067410409       -7.0249832121      -17.1634880320
 C         8.7664471511       -6.4447538765      -16.0254095504
 O         8.8424118708       -5.2567908290      -15.7865724806
 C         7.6075183266       -7.3150968986      -15.5312825640
 C        10.0326789823       -8.5114880621      -17.0856610023
 C        11.1641880876       -6.2836181912      -17.0357336549
 C         5.7244241219       -4.4333300907      -20.6695596693
 C         7.1422189109       -4.4824593431      -22.8190704350
 C        11.5156214554        0.7306877235      -19.5668684054
 C        12.8794911168       -0.9125698857      -18.2176384009
 C         5.2955872779       -1.1402795408      -17.6006943961
 C         5.4917781194        0.7440021561      -15.9109820529
 C         2.6872832006       -4.5680776208      -14.4460757959
 C         1.0482908582       -2.7692987788      -14.0819088110
 C         1.6836829139        1.6454251426      -11.2058276119
 C         1.5011889409        1.3171143967       -8.7467259769
 C        -5.3803523552        4.2055655524       -8.4634964129
 C        -4.5409159264        2.2829433691       -7.0042172884
 C        -9.2853946901        0.0430788970      -13.5599099286
 C       -11.3426278411        0.8492971854      -12.4801332106
 C       -10.7053478170       -4.9894789444       -7.5188905022
 C       -13.1498641224       -4.4545021218       -7.6519439515
 C       -13.9293191064        0.8508266955       -3.6397830507
 C       -13.0069625599        0.1768103423       -1.3249164552
 C       -16.6389834637       -4.2104918390       -0.2102543464
 C       -19.1472669818       -3.8142316390        0.0773758031
 C       -16.8512876715       -0.3189629584        6.0608912980
 C       -17.8719040019        1.7992498472        5.0935319185
 H       -14.7901382458        1.3480219525        5.7460573271
 H       -14.8572090644        2.7476511577        4.7013308687
 H       -13.7157791697        1.4112079204        4.2799306684
 H       -18.2857432976       -2.3650213145        4.9978659984
 H       -16.7428757965       -2.2368477778        4.2664311322
 H       -19.3290098218       -2.6625148766        2.5398115886
 H       -18.1264011443       -3.8373850243        3.1266286292
 H       -17.3974677277       -2.7753544456       -2.8678642882
 H       -16.0363920160       -2.4501141191       -1.8517459457
 H       -17.4871952392       -0.0607691555       -2.7867911658
 H       -16.3439061327       -0.9042807262       -3.8012551898
 H       -11.7652019376       -2.4544151954       -3.5357587694
 H       -11.9919128799       -0.8423592400       -4.1131985182
 H       -13.2049338562       -1.8551978454       -6.1565982687
 H       -13.6691669939       -3.2370304511       -5.1631891308
 H       -10.2642564865       -3.0869434392       -9.7071835960
 H        -9.4457779571       -2.1609377067       -8.5855336416
 H       -10.3776635345        0.0019355966       -9.4352069498
 H       -11.8356627682       -0.8788746886      -10.1676814136
 H        -7.3372111993        0.3664969347      -11.6849457004
 H        -7.7105839356        0.0674270738      -10.2204149583
 H        -7.6170848703        2.9825059611       -9.9987781081
 H        -6.3702159109        2.7082434174      -11.1480135955
 H        -3.3222214728        0.9129368138      -10.7588733276
 H        -3.7535535671        0.2257410770       -9.2448994749
 H        -1.5318644479       -0.3624278762       -9.1479667335
 H        -1.6412664397        1.2162670236       -8.1984165743
 H         2.8330456725       -0.6340517080      -11.0565952628
 H         1.5875803105       -0.7203930463      -12.1976312563
 H         0.8785360630       -3.0559240616      -11.0773776905
 H         2.2771433477       -3.0868686128      -10.1256946005
 H         5.1967871136       -3.6003447941      -14.5448749116
 H         5.1427310799       -3.1677404218      -12.7469673760
 H         7.0732127287       -2.0485394607      -13.3975686335
 H         5.7793695887       -0.8577504466      -13.5828321932
 H         8.4611754827        0.1425760597      -15.5022567829
 H         7.9912830440        1.7077049384      -15.9936453436
 H        10.3901423384        1.7666495488      -16.5026559225
 H         9.6428473848        1.6247912618      -17.9081046824
 H        10.4408478768       -1.0055670725      -21.4250825978
 H         8.8595714560       -0.7665936813      -20.4125496321
 H         9.9531463951       -3.3978470043      -21.6349744751
 H         8.6355238592       -2.3195679090      -22.2446374382
 H        10.0114974445       -5.6067008493      -21.3102561342
 H         9.2292535698       -6.9265266682      -21.9694016526
 H        10.5657801054       -7.7717091378      -19.8729551444
 H         8.9196043767       -8.2050739718      -19.8246306261
 H         8.0415593589       -8.1477856307      -15.0025695762
 H         7.0859706978       -7.7229265482      -16.2911716928
 H         7.0445790846       -6.7118886703      -14.7905615149
 H         9.3656587591       -9.0517254743      -17.8081296218
 H         9.9461343294       -8.8424512847      -16.0294747381
 H        10.9624458394       -8.7996916011      -17.4551100834
 H        11.0632296837       -5.2400530872      -17.2999424802
 H        11.9382161506       -6.6121235065      -17.7384199367
 H        11.5691990218       -6.4851597415      -16.0429230391
 H         5.0297948776       -5.1038011912      -21.2542467803
 H         5.5145282352       -3.3871052622      -20.7246675348
 H         5.5977105155       -4.6526842081      -19.6451217214
 H         6.8990005049       -5.5255807979      -23.1580652950
 H         8.1648921747       -4.2498388804      -23.2546671950
 H         6.3524833750       -3.8224589625      -23.1452661837
 H        10.5389128014        1.0040502196      -19.9146098850
 H        12.2023447691        0.6726525547      -20.3746734624
 H        11.8937363771        1.5026695686      -18.8672326619
 H        13.0349481000       -0.5772584659      -17.2192047321
 H        13.7139921651       -0.6061044118      -18.7484961268
 H        13.0222924887       -2.0228965898      -18.3219661727
 H         4.4204458079       -1.6810312997      -17.2212358439
 H         5.9649593227       -1.8508737201      -18.0786513987
 H         5.0904766471       -0.4570174530      -18.3413761330
 H         6.1488292901        1.0525584571      -15.1027163014
 H         4.5618055869        0.5010116283      -15.4436344117
 H         5.2947820873        1.5771060209      -16.6816076104
 H         1.7611900341       -5.0641646354      -14.5579522942
 H         3.4045106048       -5.1277063143      -13.8265525308
 H         3.2437953654       -4.5173415839      -15.4048720937
 H         0.3904840917       -2.7468512801      -13.1854987930
 H         0.5104237867       -3.3976397579      -14.8458530523
 H         1.1905454382       -1.8168313555      -14.5496998807
 H         2.7745581459        1.3873141768      -11.0413126528
 H         1.6106081174        2.7331015785      -11.0239457472
 H         1.3551511467        1.3636744870      -12.2305294884
 H         2.6016097474        1.2480372760       -8.9396152754
 H         1.1480096491        0.7377265529       -7.8777654062
 H         1.2211586085        2.3380623147       -8.4066236953
 H        -5.5156623417        4.4454604181       -9.5371711176
 H        -4.5799853735        4.8775584037       -8.1506263126
 H        -6.3596943524        4.5435948621       -8.1529162500
 H        -5.1774504040        1.7635573710       -6.3077446625
 H        -4.0170329274        3.0890300213       -6.5755984036
 H        -3.6905100002        1.5642755571       -7.2222789966
 H        -9.3832021014        0.9053008288      -14.2378900994
 H        -9.8981121019       -0.7059098259      -14.1465669953
 H        -8.2827328996       -0.3709628311      -13.5356601828
 H       -11.9653733197        0.0852145955      -12.8733439786
 H       -11.3864049464        1.5805175836      -13.3056762442
 H       -11.8926171071        1.0884760988      -11.5876096283
 H        -9.9788791466       -4.7113954774       -6.8266231703
 H       -10.2983606740       -4.9658124472       -8.5225233537
 H       -11.2431026795       -5.9566592806       -7.3345627975
 H       -13.3262477910       -5.3230781301       -6.9146930468
 H       -13.2408376650       -4.7033377487       -8.6856434236
 H       -13.8968291975       -3.6818209340       -7.4108102275
 H       -13.9062975068        1.8075933919       -3.1139984059
 H       -14.8318566998        0.9238753215       -4.3673316761
 H       -13.0730008463        0.7989040127       -4.2892851665
 H       -12.9814792934        1.2988091731       -1.1714306171
 H       -12.0255895763       -0.1512860117       -1.5390908024
 H       -13.4083684226       -0.3222510364       -0.4318409248
 H       -16.3722572741       -4.8933888230        0.5647572647
 H       -15.7557181649       -3.6382087748       -0.5431181009
 H       -16.8342957428       -4.9604838753       -1.0629287804
 H       -19.2636234946       -4.7753810612        0.6022103498
 H       -19.3867485810       -3.7974398136       -1.0562393506
 H       -19.8364944018       -3.0842384557        0.5034551314
 H       -15.8906680624       -0.9453810963        5.9412716680
 H       -17.7751477339       -0.8634580087        6.2413165313
 H       -16.5834592227        0.4156490485        6.8864356355
 H       -17.1891617719        2.2942874243        5.7305325353
 H       -18.8037007855        1.5829129139        5.5380236812
 H       -18.0893642027        2.3879748227        4.1622009658
 Na      -16.9330468825        0.2042746421        1.0345095193
 Na        9.1618165364       -3.3329805463      -17.2146206852
