232

 C       -14.8499085603        1.8552655841        4.8485755721
 C       -15.8630646709        0.9714251173        4.0537816665
 O       -15.4998584225        0.6726728211        2.8891043145
 C       -17.1790696437        0.5492541981        4.7077500584
 C       -17.9072134289       -0.3944805744        3.7427322215
 O       -18.5940941814        0.0701382229        2.8023459364
 C       -17.8070114908       -1.9254065041        3.8929274143
 C       -18.2206293498       -2.8139244947        2.7468418606
 C       -17.2261350793       -2.5208524469        1.6023623302
 O       -16.1998550530       -1.9271272202        1.6682072337
 C       -17.5221483555       -3.1891371147        0.2389987412
 C       -17.6036065023       -2.0285958932       -0.8181622574
 O       -18.2093631317       -1.0246872125       -0.4572844690
 C       -16.8989312846       -2.1186523503       -2.1346021696
 C       -16.6281861330       -0.7228521389       -2.7218057389
 C       -15.4420536331       -0.1035156111       -1.9840281285
 O       -15.6591645248        0.5709908768       -1.0318994582
 C       -13.9672926795       -0.1968884963       -2.6054543845
 C       -13.6464781713       -1.6063829567       -3.0011484132
 O       -14.2059414868       -2.5957438594       -2.5867590456
 C       -12.3951401387       -1.9545592903       -3.8756314373
 C       -12.8493865443       -2.6862275524       -5.1698238183
 C       -11.7594858333       -3.5125128433       -5.8654836742
 O       -10.6971461484       -3.6867930156       -5.2383297110
 C       -12.0215301353       -3.8890463144       -7.4248915402
 C       -11.9204493231       -2.5804426019       -8.3004774015
 O       -12.8587506249       -1.8520803781       -8.3809037453
 C       -10.5500386477       -2.1651869540       -8.8233971957
 C       -10.5963640740       -0.9066478043       -9.6092168551
 C       -10.0442745247       -1.0251012451      -11.1649752585
 O        -9.5073453762       -2.0254343520      -11.4844118585
 C       -10.0571243222        0.2797955631      -12.0412552024
 C        -9.2884805719        1.4571855409      -11.2373857700
 O        -9.6963603222        2.5916849052      -11.1704377008
 C        -7.8253954699        1.0219248851      -10.7274370355
 C        -7.0163248612        2.1750515451      -10.1722239362
 C        -6.0639673363        1.6804582335       -8.9771361950
 O        -6.2446807349        0.6712053492       -8.3481636458
 C        -4.9804518078        2.6737405696       -8.3893867813
 C        -3.7965977386        2.5119253355       -9.4665610655
 O        -3.6046433836        3.3861262319      -10.2731330010
 C        -3.2280174490        1.0067905777       -9.6157670918
 C        -1.7490844768        0.7715977387       -9.3018665401
 C        -0.7307588098        1.6527988627      -10.0157471744
 O        -0.9031253953        2.8564485391      -10.3224988054
 C         0.7688484383        1.0313590424      -10.1348958970
 C         0.9286248648       -0.5258780106      -10.3517203982
 O         0.1081026735       -1.2779290707       -9.8845027596
 C         2.0763033039       -1.3097925490      -11.1138381402
 C         1.9343364953       -2.7938507141      -11.0699026751
 C         2.8455068987       -3.4611087552      -12.0973146207
 O         3.8658463090       -4.0134774209      -11.7181154529
 C         2.6123386668       -3.2102004107      -13.6645478970
 C         3.6760500045       -2.1749936820      -14.0407797164
 O         3.3838478698       -1.0250087094      -14.3714795964
 C         5.1930429198       -2.5660920966      -13.8264432352
 C         6.2478505296       -1.4795735160      -14.3279271154
 C         6.7294497530       -1.6999365973      -15.7327007630
 O         7.4520591353       -2.6217514840      -16.0209405388
 C         6.2687586637       -0.6082761372      -16.8161636331
 C         7.5436358729        0.0435885884      -17.3350067072
 O         7.9465977013       -0.1257171623      -18.4921992875
 C         8.5772716170        0.8592637687      -16.3847186310
 C         9.9551152871        0.9758712353      -17.0190822964
 C        10.4492789130       -0.4931721224      -17.3161052834
 O        10.2617265673       -1.3729570209      -16.5258092998
 C        11.2756433230       -0.6869962179      -18.6724785330
 C        10.5991151798       -1.8740994056      -19.3553330404
 O        10.9272530318       -2.9945421065      -18.9909020014
 C         9.6122304179       -1.5317339716      -20.4395456015
 C         9.1270940218       -2.7451643102      -21.2043669858
 C         8.1045279471       -3.5134977023      -20.3805420210
 O         7.8558452173       -3.1946201361      -19.1995090128
 C         7.2291692985       -4.5928866333      -21.2622901631
 C         7.6752107019       -6.0473401564      -20.8085293031
 O         6.7805286911       -6.8192192546      -20.3977940900
 C         9.1260915886       -6.5153667355      -21.0695215795
 C         9.4741062987       -7.4028825151      -19.8263623788
 C         9.3519697786       -6.6077819466      -18.5786767381
 O         8.9897320066       -5.4462933524      -18.6683753718
 C         9.7589050802       -7.1355425652      -17.1783687236
 C         8.8098257491       -6.3833874631      -16.1698908158
 O         8.8872062929       -5.2120073515      -15.8748880239
 C         7.7284294703       -7.2210495060      -15.4568760401
 C         9.7944937911       -8.6051425919      -17.0262880804
 C        11.2268892713       -6.4801536885      -16.9280322177
 C         5.7617726689       -4.3255669489      -20.7521303768
 C         7.4767784216       -4.4282309010      -22.7766717108
 C        11.2939674066        0.5634833201      -19.5903254478
 C        12.6835635965       -1.0979961298      -18.2069190496
 C         5.5109172647       -1.2665977719      -18.0363266895
 C         5.3332767686        0.5631947122      -16.1547720671
 C         2.8488436224       -4.5865488510      -14.3792548895
 C         1.2834111174       -2.5984128071      -14.0233716620
 C         1.4357069383        1.8330304274      -11.3314589274
 C         1.5884154542        1.4576603485       -8.7793573573
 C        -5.5239528218        4.1093855346       -8.2437152991
 C        -4.5876941556        2.0948604334       -7.0211734686
 C        -9.3746226794       -0.0085230498      -13.3593951487
 C       -11.5468143984        0.6748551899      -12.1867878466
 C       -10.9496044278       -4.8897105189       -7.8052799480
 C       -13.4250449995       -4.5000569356       -7.5097570045
 C       -13.8539682726        0.8233746660       -3.8192214818
 C       -12.9929998837        0.1723814417       -1.4672640185
 C       -16.6275117037       -4.4154271655       -0.0722272109
 C       -19.0086995725       -3.6925637309        0.0182500025
 C       -16.8015829950       -0.1355281906        6.0801268569
 C       -18.0500531066        1.7495843446        4.9023669440
 H       -14.1562631813        1.2271397722        5.4112081384
 H       -15.4210913537        2.4198580891        5.6024480282
 H       -14.3740055430        2.5742365088        4.2004579455
 H       -18.3876003079       -2.3272528437        4.7436996329
 H       -16.8363002954       -2.2604137084        4.1852957487
 H       -19.2296149407       -2.5665045266        2.4308722609
 H       -18.1749807023       -3.8992264954        3.1016422461
 H       -17.5968076964       -2.6623838099       -2.7972122832
 H       -15.9802897696       -2.6992979027       -2.0865859566
 H       -17.5975907869       -0.1764893874       -2.6576938457
 H       -16.4193273165       -0.8582203640       -3.7730002737
 H       -11.9460733178       -2.7223348788       -3.2929967704
 H       -11.6628859891       -1.1785470439       -4.0015020628
 H       -13.3950963481       -1.9922323555       -5.7689033703
 H       -13.6071513509       -3.4548367034       -4.8294528323
 H       -10.0554370596       -2.9288209719       -9.4974445969
 H        -9.8344416482       -2.1602356555       -8.0042522179
 H        -9.8642955590       -0.1335176342       -9.2765973114
 H       -11.5852170678       -0.5450042535       -9.6485308000
 H        -7.4065167419        0.3193700254      -11.4472181959
 H        -7.8262494506        0.2851866709       -9.9931662060
 H        -7.6295264310        3.0242657129       -9.8929810606
 H        -6.4645853986        2.6676282501      -10.9202955532
 H        -3.4723488387        0.6583328437      -10.5942860297
 H        -3.7213699450        0.3132706661       -8.8768860949
 H        -1.5326638494       -0.2338598357       -9.4963994445
 H        -1.7085777833        0.9894131920       -8.2232649549
 H         3.0733037840       -0.9329285424      -10.8021222632
 H         1.8381120273       -1.0433128939      -12.1728476854
 H         0.8704724606       -3.0669985612      -11.2732877907
 H         2.1268387221       -3.3362777387      -10.1010953244
 H         5.5732439629       -3.4509934040      -14.2703812513
 H         5.2666681290       -2.7126953141      -12.7643709555
 H         7.1191220373       -1.4787064738      -13.6890756697
 H         5.8794115764       -0.4405813274      -14.2731599895
 H         8.5146144170        0.4276700586      -15.3756070442
 H         8.1560027955        1.8714464815      -16.2089032017
 H        10.7095446705        1.5453309884      -16.4478054806
 H         9.9050106385        1.7089795579      -17.8719437442
 H        10.0326064671       -0.7646644903      -21.0967216518
 H         8.7753600708       -1.1610370284      -19.8847256576
 H         9.9825880171       -3.3617104807      -21.4499171367
 H         8.6207014295       -2.3789948070      -22.1230872610
 H         9.7854711216       -5.7220992023      -21.3223373153
 H         9.3628616849       -7.2168606171      -21.8961220109
 H        10.4776341204       -7.7614002162      -20.0383061295
 H         8.9455009393       -8.3652845327      -19.8143114118
 H         8.0530701364       -7.7452474376      -14.5143391708
 H         7.4652457167       -8.0893115968      -16.1544607292
 H         6.8288541322       -6.5677509464      -15.3288241716
 H         8.9036731615       -9.0633370616      -16.7183368631
 H        10.5324389097       -8.8879856816      -16.2753471527
 H         9.8374598920       -9.1047940247      -18.0411747356
 H        11.3161966073       -5.3672948852      -16.9694526892
 H        11.8869723836       -6.7728700419      -17.7806916528
 H        11.7129717066       -6.9776382214      -16.0478583677
 H         5.0696466030       -4.9305183530      -21.2915244260
 H         5.4670964945       -3.2651613163      -20.6301841496
 H         5.7680634246       -4.6833311694      -19.6861049303
 H         6.9102049631       -5.1665883007      -23.2919385635
 H         8.5197042510       -4.4910951955      -22.9712893216
 H         7.0946319365       -3.4354326002      -23.1287064576
 H        10.2666992407        0.8274457774      -19.9242196930
 H        11.7940413359        0.3237273740      -20.6025553366
 H        11.9137247140        1.3201354615      -19.1358231190
 H        13.2176746748       -0.2402427650      -17.7374319924
 H        13.3364953944       -1.2070772798      -19.1484225480
 H        12.8658750222       -2.0522603987      -17.7117610192
 H         4.5231012219       -1.5287006025      -17.7666202526
 H         6.1018512799       -2.0948516589      -18.4746150448
 H         5.4554227655       -0.4761829796      -18.8117644347
 H         5.8796571257        1.3030602135      -15.5943938301
 H         4.3725311243        0.2822322131      -15.6867875261
 H         5.0823381277        1.0541282437      -17.0682769670
 H         1.9243426312       -5.1834508023      -14.1986836565
 H         3.7227548488       -5.0717700449      -13.9837822000
 H         3.1123753854       -4.4279419449      -15.3898344244
 H         0.7840041122       -2.3058112540      -13.0921231474
 H         0.6203787521       -3.2374738402      -14.5706801387
 H         1.4568534436       -1.6197783222      -14.6108072464
 H         2.2258460986        2.5146793614      -11.1021971106
 H         0.6122407510        2.3731801144      -11.7874437821
 H         1.7469160579        1.1080677038      -12.0864882747
 H         2.5631088803        0.9971573848       -8.6351291481
 H         0.9600168808        1.1588663736       -7.9312138927
 H         1.4334631057        2.5104100288       -8.7178147592
 H        -6.1804077080        4.5749579867       -8.9354701694
 H        -4.6175948184        4.7367083392       -8.2585911312
 H        -6.0708091087        4.3019369560       -7.3304831044
 H        -5.5379700760        1.9461223923       -6.4170407946
 H        -3.9393285592        2.8747230337       -6.5110198565
 H        -4.0962063718        1.1068099896       -7.0353773838
 H        -8.8057234639        0.8006027219      -13.8259081189
 H       -10.0837004301       -0.3086269850      -14.0773338906
 H        -8.6919131272       -0.8666210012      -13.2015190857
 H       -12.0708613264        0.0859204610      -12.9837651825
 H       -11.6959945911        1.6614365899      -12.5555549080
 H       -12.2077891035        0.4223768216      -11.3312633507
 H       -10.0756029460       -4.5623811379       -7.1795648280
 H       -10.6889920464       -4.8387127788       -8.8547357408
 H       -11.3309648329       -5.8211451860       -7.5455386502
 H       -13.6348090428       -5.1698276323       -6.7138012245
 H       -13.5519765507       -4.8727794235       -8.5645847480
 H       -14.1183633856       -3.6791162112       -7.3274005698
 H       -13.9148968764        1.8440471913       -3.6175998019
 H       -14.6189339391        0.5845054932       -4.4980867107
 H       -12.9332592636        0.5865434765       -4.3368006265
 H       -13.3322271442        1.0446481516       -0.9877239410
 H       -12.0250517810        0.4203082998       -1.9898468296
 H       -12.9036531696       -0.6634590175       -0.7584716341
 H       -16.9654079291       -5.2366272839        0.6055776811
 H       -15.5477435990       -4.3581815108        0.0095516387
 H       -16.8153079404       -4.7654816524       -1.0185633582
 H       -19.1354272504       -4.5008635935        0.7251343058
 H       -19.0974268792       -3.9896528338       -1.0008697122
 H       -19.7594853380       -2.9090200733        0.3085593167
 H       -16.2297800452       -1.0289359748        5.9811853888
 H       -17.7742282928       -0.4286248073        6.5681005517
 H       -16.1922311425        0.5512669663        6.5367281334
 H       -17.5592543817        2.4825840948        5.5307814810
 H       -19.0384154475        1.3878668566        5.2147090423
 H       -18.3288795230        2.0996598056        3.9545449266
 Na      -16.8687685218        0.1924909408        0.9641637310
 Na        9.2860199385       -3.4134412687      -17.1918010074
