232

 C       -14.9418865612        2.0225652689        4.9398404019
 C       -15.8234426123        1.1962576884        4.0822736637
 O       -15.6677574645        1.0557058165        2.8965396614
 C       -17.2373540053        0.6782031671        4.7346844803
 C       -17.8721379733       -0.4763746683        3.7193682793
 O       -18.4484098412       -0.0798061105        2.7356506418
 C       -17.8010576717       -1.9104716716        4.0173778618
 C       -18.2879795143       -2.7479005328        2.8108940470
 C       -17.3138687089       -2.6167246599        1.6229211795
 O       -16.2361824844       -1.9804207130        1.7000603397
 C       -17.6791736414       -3.2704265531        0.2449415050
 C       -17.6433946268       -2.1176845283       -0.8973318346
 O       -17.9962007623       -1.0057757642       -0.5688183442
 C       -17.2475404373       -2.0848576985       -2.3969430689
 C       -16.3940763437       -0.7887652011       -2.8834416027
 C       -15.2159633901       -0.2932171422       -1.9886541969
 O       -15.5099624589        0.3839073139       -0.9848619866
 C       -13.8550146887       -0.1976055452       -2.5871790333
 C       -13.5124106955       -1.6803151804       -2.9946041958
 O       -14.2119972121       -2.6033456289       -2.5725899979
 C       -12.3343989245       -1.9579502876       -3.9184878580
 C       -12.8411850376       -2.8247323301       -5.1628904913
 C       -11.8016290722       -3.5737209903       -5.9926953440
 O       -10.6977364768       -3.7393780178       -5.5962503589
 C       -12.1742827079       -3.9520004336       -7.4582714472
 C       -12.0597012019       -2.5262555374       -8.2261688145
 O       -13.0419776242       -1.8414715734       -8.3509417903
 C       -10.6587541643       -2.1452600182       -8.6913618581
 C       -10.5543254840       -0.7659315183       -9.3411893324
 C       -10.0247345883       -1.0328121426      -10.8084225689
 O        -9.4342582509       -2.0817235371      -11.1153881145
 C       -10.1095329667        0.2552941873      -11.7386007917
 C        -9.2459331271        1.4592111077      -11.1157947706
 O        -9.6732923573        2.6235524748      -11.1511029018
 C        -7.8600918897        1.0947783693      -10.5669118133
 C        -7.1673323475        2.2318595100       -9.9283395846
 C        -6.2922393005        1.5973649910       -8.8311522268
 O        -6.3827571683        0.4424741632       -8.4067896555
 C        -5.0681529580        2.4441794164       -8.3655655304
 C        -3.9065515730        2.4135961439       -9.5851092870
 O        -3.7254382607        3.4870024926      -10.0568766427
 C        -3.2409371814        1.0706651169       -9.8702938644
 C        -1.8759571523        0.9040583452       -9.0846782328
 C        -0.7101069332        1.6620022323       -9.9716100735
 O        -0.9420473361        2.7559193810      -10.3142348697
 C         0.7141102825        1.0266493293      -10.3083025292
 C         0.7369726351       -0.5323601635      -10.5310150265
 O        -0.2208947241       -1.2088962620      -10.1898220034
 C         2.1762514680       -1.0397856050      -10.9161894618
 C         2.0916604146       -2.5722462422      -11.0391771246
 C         3.0781182557       -3.1545936547      -12.0532205791
 O         4.0511519845       -3.7697864816      -11.6351953273
 C         2.7894684209       -3.1388817149      -13.6364712850
 C         3.9545264341       -2.0805910654      -14.0567315274
 O         3.6022413202       -0.9705874920      -14.4303760502
 C         5.3826501041       -2.4847159709      -13.9677265719
 C         6.2735855401       -1.3050085126      -14.3462217167
 C         6.7153598725       -1.5076558860      -15.8126911846
 O         7.3459847996       -2.5207593188      -16.0905687246
 C         6.1660510579       -0.5683587736      -17.0201942422
 C         7.7004004778        0.2305128418      -17.5179830476
 O         7.9951807036        0.3999170085      -18.6437745758
 C         8.4412166954        0.8737528170      -16.3210851306
 C         9.9982708109        0.9599065107      -16.6488226482
 C        10.4946494679       -0.4507346177      -17.2371198511
 O        10.1752895472       -1.3987012248      -16.5528535754
 C        11.3563541905       -0.6981905986      -18.5861317526
 C        10.7262842963       -1.8950997383      -19.3813654292
 O        10.8620576439       -3.0360243871      -19.0266890214
 C         9.8457251481       -1.5713439182      -20.6290896534
 C         9.3141091996       -2.9247680016      -21.2339980805
 C         8.0043661240       -3.5533699125      -20.5286011144
 O         7.7065420711       -3.2282358660      -19.4156332491
 C         7.1480111772       -4.6680146734      -21.2762136377
 C         7.4674820255       -6.0937897326      -20.6772880489
 O         6.6394345028       -6.7545941576      -20.1188650589
 C         8.8793102139       -6.7477566002      -21.0449355964
 C         9.4995567208       -7.5443608024      -19.8125717826
 C         9.5133257888       -6.6243543815      -18.5552209951
 O         9.0961959127       -5.4927983121      -18.6955743076
 C         9.8970564794       -7.2142635512      -17.1426824731
 C         8.8822495727       -6.5182018666      -16.0873026816
 O         9.0543734381       -5.3254805270      -15.8570144345
 C         7.7030546203       -7.1617053708      -15.3020103079
 C         9.8120293516       -8.7895586735      -17.1009786250
 C        11.2771095645       -6.8096007836      -16.7311770576
 C         5.6076188604       -4.3848758519      -21.0286489838
 C         7.3294077004       -4.6249131032      -22.8784287523
 C        11.4831193251        0.5520261208      -19.4427335243
 C        12.7765708266       -1.1760758373      -18.0818139291
 C         5.7814971372       -1.5068429343      -18.1688312258
 C         5.2234961926        0.5424769626      -16.6896060978
 C         3.1391556368       -4.4990330094      -14.3639923884
 C         1.2767816290       -2.7599154273      -13.9584242766
 C         1.3252257996        1.8432220725      -11.4706238048
 C         1.5441685872        1.2951011912       -8.9810979671
 C        -5.3561954712        4.0689596903       -8.2887207492
 C        -4.4437634197        2.0466446930       -7.0061748985
 C        -9.4248230258       -0.0490747413      -13.1144626153
 C       -11.5246847286        0.7717163291      -11.9268460874
 C       -11.2076837421       -5.0695731685       -7.9517549388
 C       -13.6532546470       -4.5264229236       -7.4867976406
 C       -13.8901886520        0.6847947289       -3.9190586715
 C       -12.7816171869        0.4096383767       -1.6458154678
 C       -16.5695718786       -4.3060822389       -0.1283254629
 C       -19.0728085714       -3.9262176125        0.3182453116
 C       -17.0249926837        0.0896102566        6.1072179715
 C       -18.1877629701        1.9010005986        4.8756566212
 H       -13.9674218473        1.5415484109        4.9233706294
 H       -15.2091866938        2.1606111654        5.9868180694
 H       -14.9435363518        3.0024559889        4.4510006198
 H       -18.3820102962       -2.0451168058        4.9235632099
 H       -16.8127714838       -2.2844841836        4.3656129587
 H       -19.2527887077       -2.2711587527        2.4645549592
 H       -18.3945071737       -3.8026735517        2.9592993402
 H       -18.1727286959       -2.2419520362       -2.9898071347
 H       -16.5142116297       -2.8979606679       -2.6198690010
 H       -17.1194293885        0.0257696583       -2.8502647314
 H       -16.1503570904       -0.9061790812       -3.9678217690
 H       -11.6004064235       -2.5936505391       -3.3302140861
 H       -11.8495625983       -0.9613575392       -4.1314037429
 H       -13.4544742967       -2.1337177719       -5.7942123121
 H       -13.5433487438       -3.5186589047       -4.7903650382
 H       -10.1860104532       -2.8582869680       -9.3543567969
 H       -10.0013056053       -2.2285943287       -7.7980636946
 H        -9.8308691038       -0.0913505416       -8.9202106265
 H       -11.5479475155       -0.2469187678       -9.4778223820
 H        -7.2869499120        0.5869755403      -11.3533955464
 H        -7.8530463577        0.1747162646       -9.8988059301
 H        -7.8502322092        2.9806996755       -9.5596461115
 H        -6.6370238726        2.9235969402      -10.6285196772
 H        -2.8559085351        1.0184996064      -10.9385119125
 H        -3.9955803229        0.3662384893       -9.6154268722
 H        -1.6610733919       -0.2036858393       -8.9169334585
 H        -1.8682914922        1.4686087174       -8.1711708092
 H         2.7475779466       -0.7131245851      -10.0361986985
 H         2.4354873994       -0.5669503121      -11.8646814176
 H         1.1032846931       -2.9211760055      -11.3085629820
 H         2.2363633974       -3.0468839109      -10.1059839050
 H         5.5654307085       -3.4199863312      -14.6086200829
 H         5.6273180842       -2.8229744712      -12.9069745976
 H         7.1537643472       -1.3480160847      -13.6778107404
 H         5.7886285711       -0.3812906528      -14.0850298803
 H         8.2730025233        0.3132987271      -15.3711384315
 H         7.9290076031        1.8022136255      -16.0809295017
 H        10.5506407697        1.1571261512      -15.7436527148
 H        10.3554973517        1.7636480003      -17.2252410922
 H        10.4560613199       -0.9736490950      -21.3356688181
 H         9.0606302577       -0.8765668187      -20.2296727795
 H        10.1666959063       -3.6323838519      -21.1592600824
 H         9.1156723221       -2.6608540577      -22.2680031206
 H         9.5188782047       -5.9153492040      -21.4106335769
 H         8.8354254272       -7.4720160126      -21.8629514384
 H        10.4544698619       -8.1028629505      -19.9816981930
 H         8.8100727233       -8.3707506050      -19.6051966493
 H         8.0776440647       -7.9650160129      -14.6822428383
 H         6.8621556957       -7.5628639001      -15.8732892806
 H         7.2791203701       -6.3713928125      -14.7138687328
 H         8.8724999005       -9.2816786162      -16.6895173577
 H        10.4651211789       -9.1358444921      -16.3160097246
 H         9.9512029705       -9.2747382837      -18.0184345174
 H        11.4124386240       -5.7671257769      -16.5853649848
 H        12.0550861030       -7.1711896525      -17.3841227695
 H        11.4119734500       -7.2593396823      -15.8013507574
 H         5.0698029637       -5.3010962454      -21.2633332395
 H         5.3439608560       -3.6579871025      -21.8025017290
 H         5.3000567533       -3.9409692978      -20.1111054502
 H         6.4396575896       -5.1110076994      -23.3689484804
 H         8.3593144181       -4.9625663908      -23.1456424576
 H         7.2712063087       -3.6299987001      -23.2782657495
 H        10.5886272051        0.9304600265      -19.8901178161
 H        12.0351043659        0.2791760686      -20.2744186794
 H        12.1427458565        1.2402558340      -18.9055038386
 H        13.4892247168       -0.3751655047      -18.1507451322
 H        13.2820497668       -1.9044483529      -18.6728901840
 H        12.7986490004       -1.4844308252      -17.0221870061
 H         4.7082642890       -1.8987115636      -18.0890320929
 H         6.5306525294       -2.2444464605      -18.2813313497
 H         5.7627478194       -0.8592147482      -19.0785582313
 H         5.6195091219        1.0724760508      -15.7693923820
 H         4.2820923671        0.0424755421      -16.4991514222
 H         5.0625777502        1.3323129927      -17.4515115562
 H         2.6710554499       -5.3382780518      -13.8896389438
 H         4.2157213868       -4.6944876042      -14.4034916287
 H         2.9049872342       -4.3147060370      -15.4489396666
 H         0.6869846011       -2.2643654408      -13.1971437362
 H         0.8859851596       -3.7692209635      -14.1885040629
 H         1.2259255396       -2.1420039601      -14.7689321366
 H         1.5976774460        2.8144496044      -11.0490900725
 H         0.6431977605        1.9155142348      -12.3012151856
 H         2.2101416696        1.3742265717      -11.8045435119
 H         2.4443418770        0.7053750682       -9.0839235356
 H         1.1228208516        0.6901734147       -8.1461914713
 H         1.5803022771        2.4045052498       -8.7187896820
 H        -5.8880043406        4.6118679348       -9.1027631307
 H        -4.5361952670        4.7056529149       -8.0572692106
 H        -6.1141345569        4.2098912856       -7.4818871843
 H        -5.0399409387        2.5132676644       -6.2797141170
 H        -3.5415676472        2.5862093144       -6.9154364798
 H        -4.3483125248        1.0278564034       -6.7948855026
 H        -9.0105240787        0.8446233138      -13.5795930223
 H       -10.1925356495       -0.5626218566      -13.7922239737
 H        -8.5480336783       -0.6535289916      -12.9873542083
 H       -12.2032823480        0.0865101367      -12.3771460000
 H       -11.5754357837        1.7080357578      -12.5401264289
 H       -12.0134476236        1.0170872926      -11.0058882111
 H       -10.2315260529       -4.7146883030       -8.1366521992
 H       -11.6718123042       -5.4736957261       -8.8515789286
 H       -11.2452594434       -5.8015404793       -7.0910932518
 H       -13.6601538478       -5.1058593374       -6.5843045807
 H       -13.8025410155       -5.0618729460       -8.3620809554
 H       -14.4363375092       -3.8362278187       -7.2700604710
 H       -14.5643102349        1.6416967934       -3.7782577318
 H       -14.2423115309        0.1999366804       -4.8558164098
 H       -12.8544630329        1.0245417294       -4.0827049081
 H       -13.1603023691        1.2665152750       -1.0399545133
 H       -11.9585895854        0.6701486358       -2.2575784250
 H       -12.5507970373       -0.3902989970       -0.9779266472
 H       -16.7406230491       -5.2860662482        0.2595739541
 H       -15.6147176439       -4.0772816382        0.3318800840
 H       -16.3185992564       -4.3233941572       -1.2549975599
 H       -19.2473122122       -4.5403574444        1.2160670769
 H       -19.0769120562       -4.5819191558       -0.5372824088
 H       -19.8518967600       -3.2417098723        0.3767532957
 H       -16.3980674362       -0.8155273111        6.0602807988
 H       -17.9027831012       -0.3561610448        6.4358951088
 H       -16.4979166136        0.8611853359        6.7804526208
 H       -17.5950708206        2.6686400853        5.4028921281
 H       -19.1088691468        1.6511309667        5.3877213677
 H       -18.6133367253        2.2272053949        3.8950544460
 Na      -16.8224456499        0.3472932122        1.0024411562
 Na        9.3260698616       -3.5112225895      -17.4733789568
