232

 C       -15.1099803068        2.1264291673        5.0983081594
 C       -16.1480245401        1.5446349664        4.0845144769
 O       -15.8877500756        1.6730222940        2.9295759237
 C       -17.3375070833        0.7829036138        4.6836411111
 C       -17.8283066612       -0.3249406619        3.6161646460
 O       -18.3161771361        0.1026098718        2.5921219860
 C       -17.7713216478       -1.7632846554        4.0312904042
 C       -18.2257465803       -2.6959175170        2.9125421021
 C       -17.3185207937       -2.5622212688        1.5999655104
 O       -16.2724958987       -1.9102053507        1.7733796292
 C       -17.6285467143       -3.1310976480        0.1845878307
 C       -17.6141277949       -1.9386187776       -0.7144611569
 O       -18.2559100404       -0.9293730902       -0.4233663425
 C       -17.1180153626       -2.2228444280       -2.1429650455
 C       -16.4867892729       -0.7953026875       -2.7349611519
 C       -15.1658700468       -0.3965924389       -2.0120559099
 O       -15.2022851239       -0.1931321242       -0.7755771191
 C       -13.8570561574       -0.3191522645       -2.8311626747
 C       -13.3636741051       -1.7713244172       -2.9669830602
 O       -13.9122396331       -2.7443313232       -2.4178307071
 C       -12.2540166450       -2.0514237380       -4.0179689370
 C       -12.9255189101       -2.9391108148       -5.0921101544
 C       -11.9232307478       -3.7245363144       -6.0238302020
 O       -10.7549902661       -3.6931478265       -5.8470820900
 C       -12.4749001421       -4.0933073235       -7.4042861247
 C       -12.1920097299       -2.7144426533       -8.1445111138
 O       -13.1177033548       -1.9697704300       -8.4213428431
 C       -10.7673837113       -2.1487734288       -8.4274307073
 C       -10.8629272719       -0.8139485267       -9.1623907634
 C       -10.1150555498       -0.8980665389      -10.4967470017
 O        -9.3992429162       -1.8997665628      -10.7045762211
 C       -10.2177000698        0.3102188175      -11.5750385431
 C        -9.2736107435        1.5099241849      -10.9388842537
 O        -9.7494238431        2.6358500587      -10.8826335097
 C        -7.7886370419        1.2455866517      -10.6024790562
 C        -7.2290604747        2.1415260133       -9.5727020066
 C        -6.1074569273        1.5937648695       -8.7106360704
 O        -6.1727662331        0.4960313784       -8.1540187625
 C        -4.9660877296        2.5017637562       -8.3565056313
 C        -3.9034816029        2.4461319724       -9.4588436750
 O        -3.8027101485        3.3801898212      -10.2152954916
 C        -3.2853581448        1.1008474652       -9.7194835783
 C        -1.8137464962        0.8950927406       -9.2238000986
 C        -0.7970823787        1.7328316065      -10.1284780456
 O        -1.0403785418        2.8308426380      -10.4214245756
 C         0.6542693284        1.0729537197      -10.3325405189
 C         0.6182657394       -0.4571886729      -10.7049313248
 O        -0.4074944368       -1.0588254604      -10.9013545844
 C         1.9665326039       -1.0643633094      -11.0821677338
 C         2.1193894246       -2.5986030095      -10.9771490446
 C         3.3047656858       -3.1272700275      -11.8679308394
 O         4.3757025972       -3.4388638403      -11.3864924788
 C         3.0824657452       -3.0334604433      -13.4694529099
 C         4.0438471222       -1.8923957462      -14.0353673502
 O         3.4829691017       -0.8925255442      -14.5120641109
 C         5.4966702650       -2.1637544259      -14.0265240846
 C         6.3704987950       -1.0688370482      -14.6181776566
 C         6.7942975558       -1.3704415021      -16.1312349921
 O         7.4340145890       -2.3975630170      -16.2584094820
 C         6.3245146649       -0.4038991915      -17.3415530786
 C         7.6316297479        0.4501743887      -17.6118930623
 O         7.9398611984        0.7750714787      -18.7097170228
 C         8.4609881406        0.9101914609      -16.4128405015
 C         9.9541923519        0.7818196527      -16.8062425411
 C        10.3916254135       -0.6271689878      -17.3319943415
 O         9.9656452198       -1.5521135548      -16.6791144320
 C        11.3453347405       -0.8393875797      -18.5601175050
 C        10.8254074660       -2.0711751362      -19.4267641121
 O        11.0593418390       -3.1998595143      -19.0406565034
 C         9.8874987612       -1.8210087920      -20.5849213521
 C         9.5087393656       -3.1549319740      -21.3432947488
 C         8.1889328762       -3.7105432753      -20.7093340094
 O         7.9092294681       -3.4334769055      -19.5818317287
 C         7.2179674093       -4.7440909304      -21.4135669946
 C         7.3536292337       -6.0715229592      -20.6182812366
 O         6.6707997689       -6.4157884743      -19.7060177430
 C         8.6552693068       -6.8857335336      -20.8980115562
 C         9.0072174153       -7.6365575634      -19.6343112987
 C         9.5221792667       -6.7637425258      -18.4830889220
 O         9.6431522680       -5.5674166797      -18.7044577090
 C         9.8834241964       -7.3834516136      -17.1468110926
 C         8.9377545614       -6.6477168389      -16.0800880599
 O         9.1892682016       -5.4960399842      -15.8635217028
 C         7.8480340377       -7.3344868666      -15.2337027282
 C         9.6908931539       -8.8964011429      -16.9803516045
 C        11.3803504543       -7.0746048819      -16.9638640841
 C         5.7567286586       -4.2315434016      -21.3272936550
 C         7.4546226125       -5.1532437454      -22.9747561056
 C        11.5954670811        0.5040282071      -19.3591266071
 C        12.7762132248       -1.1892981178      -17.8954919944
 C         6.0085308424       -1.1375188035      -18.6573612750
 C         5.3400885156        0.6515782146      -16.7943792166
 C         3.4472596080       -4.4164570305      -13.9518779844
 C         1.6506704600       -2.7116544374      -14.0586424627
 C         1.3282623183        1.7980444920      -11.4686571999
 C         1.3810927079        1.3409468332       -8.9705452220
 C        -5.5019125935        3.8924882958       -7.8518992906
 C        -4.3263962819        1.9016677485       -7.0053168768
 C        -9.7195725643       -0.2676294731      -12.9388221764
 C       -11.6291062313        0.8144715324      -11.7520693431
 C       -11.5743881648       -5.1751354429       -8.1128200538
 C       -13.9783920286       -4.4900616313       -7.4851118207
 C       -14.0619987221        0.3920960687       -4.1262576161
 C       -12.7820716102        0.3221705250       -1.9126388932
 C       -16.3773841480       -4.1226858242       -0.1336232718
 C       -19.0018436472       -3.8163109958       -0.0724511828
 C       -17.0892825055        0.2613548680        6.0570753526
 C       -18.4224266589        1.8480031568        4.6816631096
 H       -14.1089573694        1.7985435280        4.8883430883
 H       -15.2222597883        1.6038658125        6.0198925380
 H       -15.2538924466        3.1828046517        5.4157887322
 H       -18.3402657644       -1.9060066511        4.9026113241
 H       -16.7442291043       -2.0342001364        4.3918408604
 H       -19.2732651428       -2.2900054211        2.6659949577
 H       -18.3648379267       -3.7446560036        3.1709481494
 H       -18.0723742881       -2.5070978480       -2.6368899645
 H       -16.3674499344       -3.0002970502       -2.2791592104
 H       -17.2256148784       -0.0244446562       -2.6367271508
 H       -16.4244987925       -0.8745695739       -3.8432955460
 H       -11.5471096070       -2.7514572239       -3.5571951386
 H       -11.7638677057       -1.1819989812       -4.3513250728
 H       -13.7301426309       -2.3875355024       -5.6529496644
 H       -13.3775180947       -3.7031297561       -4.4823967587
 H       -10.1972757772       -2.8604485182       -9.0070080263
 H       -10.1188032407       -1.9421503924       -7.5015748740
 H       -10.3374448632       -0.0964893384       -8.5460804073
 H       -11.8972409790       -0.4538153132       -9.3166250008
 H        -7.2486783923        1.4668686668      -11.4894094643
 H        -7.5770393266        0.1861317875      -10.5164788919
 H        -8.0911562310        2.4284534630       -8.9741498593
 H        -6.9770510117        3.1003720649       -9.9835809730
 H        -3.3308587667        0.8802728628      -10.7910392617
 H        -3.9089269766        0.4502356720       -9.1355804573
 H        -1.5146417379       -0.1450125312       -9.2045994478
 H        -1.6985530959        1.2528010016       -8.2262802343
 H         2.6749623747       -0.5340908330      -10.4301892660
 H         1.9384568167       -0.8385765567      -12.1792595377
 H         1.1704011367       -3.0764709379      -11.2906641034
 H         2.2845949840       -2.9135521661       -9.8965316854
 H         5.6224544957       -3.1687359191      -14.4426715614
 H         5.7471824776       -2.3176702678      -13.0193096804
 H         7.3088407202       -1.0973859083      -14.0562416266
 H         5.9427058139       -0.0752965796      -14.4309004571
 H         8.2752429972        0.1317081575      -15.6330302312
 H         8.3303588024        1.8758535401      -15.9095899388
 H        10.5909415967        0.9297703241      -15.8901848509
 H        10.3461999651        1.5334820840      -17.5061740912
 H        10.3882494970       -1.1301934514      -21.2395005392
 H         9.0465872411       -1.2283969662      -20.2673889129
 H        10.2488942900       -3.9398259613      -21.2061443385
 H         9.4102718512       -2.8633469470      -22.4024685243
 H         9.5052358195       -6.2123029607      -21.0308787090
 H         8.4297997004       -7.4283568938      -21.7786896958
 H         9.6356495425       -8.5419636208      -19.6595086123
 H         8.1050994466       -7.9963079888      -19.1489340544
 H         7.7811300398       -8.4069695307      -15.5734138828
 H         6.9111263349       -6.7780183081      -15.1367108199
 H         8.1424769502       -7.1737910547      -14.1379705477
 H         8.6867310757       -9.1944949567      -17.4148211425
 H         9.5061971792       -9.3419154557      -15.9729778391
 H        10.4535404257       -9.5127316535      -17.3663842480
 H        11.5191665036       -5.9629553644      -17.0003743498
 H        11.9902173677       -7.6212483217      -17.7294427434
 H        11.7232533891       -7.2458388521      -15.9030758236
 H         5.1109460629       -5.0984930393      -21.7304415413
 H         5.5800334511       -3.3872825874      -21.9953537103
 H         5.4354363859       -4.0115949650      -20.3167371999
 H         7.0600011671       -6.1088769292      -23.2270718288
 H         8.4663150868       -4.9686439527      -23.3485203857
 H         6.8961831605       -4.4673279804      -23.5696593509
 H        10.6867431323        1.0280471211      -19.7538496749
 H        12.2891917465        0.3907097709      -20.2189343403
 H        12.0835516690        1.2859605821      -18.6337020085
 H        13.1802643840       -0.4496665438      -17.1685483931
 H        13.5011008030       -1.2676420121      -18.6754093202
 H        12.6751683170       -2.0205710213      -17.1258265870
 H         4.9288221640       -1.4351683474      -18.7861076884
 H         6.6802562838       -1.9592561485      -18.5395603147
 H         6.1699484288       -0.5409213947      -19.5133558197
 H         5.9138190371        1.3793107882      -16.2869737558
 H         4.6455641206        0.2251003653      -16.1468707650
 H         4.8473065896        1.2806183876      -17.5727773680
 H         2.5997295491       -5.0515440258      -13.8430719218
 H         4.2333987880       -4.9130053330      -13.3451148916
 H         3.6642551194       -4.3358985600      -15.0422233881
 H         1.7342587295       -1.7482954036      -14.5930229809
 H         0.9917234685       -2.6050981965      -13.1647693268
 H         1.3108902918       -3.3924946251      -14.8368824549
 H         0.7992926470        2.7089322363      -11.7836215797
 H         1.5714058901        1.0903328640      -12.2524677403
 H         2.3081784514        2.0802089505      -11.0410252046
 H         2.4404541198        1.6558618476       -9.0664542889
 H         1.4198787511        0.5056305155       -8.3183219400
 H         0.8739997846        2.2391488124       -8.7418194800
 H        -5.5944285944        4.6054483640       -8.6799936461
 H        -4.7816263324        4.4099344271       -7.1996819431
 H        -6.4202218624        3.9703685572       -7.3102470969
 H        -5.1036675866        1.8068760101       -6.1965212632
 H        -3.4962556513        2.5439565935       -6.6277217116
 H        -3.9449221553        0.8902164440       -7.3298360574
 H        -9.9806797390        0.3586289464      -13.7716791895
 H       -10.1063883872       -1.2839329829      -12.9944603813
 H        -8.6623024439       -0.2643754167      -12.9468868401
 H       -12.3314148434        0.0307660698      -11.5438316602
 H       -11.9138994850        1.3462349785      -12.6714858811
 H       -11.8650922775        1.6739097676      -11.0838634593
 H       -10.5521496361       -4.9929584183       -7.9154242257
 H       -11.7899489037       -5.0824645126       -9.1759950159
 H       -11.8353830976       -6.1568478407       -7.6659816069
 H       -14.1542507557       -5.4809953090       -6.8900111725
 H       -14.0223868047       -4.7219641504       -8.5296174194
 H       -14.7651095022       -3.7793039452       -7.1857784112
 H       -14.3681551175        1.3838148112       -3.8221626267
 H       -14.8083672493       -0.0173458074       -4.7721111149
 H       -13.1860835009        0.5188306516       -4.6112289167
 H       -13.0041716291        1.4203666960       -1.9689753040
 H       -11.7690134041        0.0556157528       -2.0836990421
 H       -13.1597292339        0.0059470124       -0.9341985776
 H       -16.0534556691       -4.5402927037        0.7439195976
 H       -15.4933337566       -3.6278495651       -0.4610768314
 H       -16.5807890944       -4.8345610456       -0.9657704431
 H       -19.0266742801       -4.8400398928        0.2908336502
 H       -19.0818944650       -3.9478381733       -1.2105866766
 H       -19.8016550526       -3.2858593344        0.3843272807
 H       -16.2651318968       -0.4486284939        6.0290559620
 H       -17.8773440258       -0.3423704548        6.3680891960
 H       -16.9861540264        1.0636048113        6.8342107888
 H       -18.1898979610        2.7015407553        5.3002094072
 H       -19.3766896044        1.4869950136        5.0260225116
 H       -18.4742212007        2.2004089518        3.6013895532
 Na      -16.6218179653        0.3622896436        1.0068747106
 Na        8.9465929974       -3.6149838138      -17.4955142550
