232

 C       -15.0820733635        2.2065672626        5.1207179071
 C       -16.0783701768        1.5520414832        4.1047029571
 O       -15.9158173995        1.8018370847        2.9097220826
 C       -17.4328637442        0.8911229739        4.6322472537
 C       -17.8950073283       -0.2645619041        3.6167377618
 O       -18.3491378641       -0.0157123532        2.5061873958
 C       -17.8157574699       -1.6776379110        3.9830173316
 C       -18.2569064801       -2.6352698380        2.8477157797
 C       -17.3009209566       -2.4564466001        1.6857252588
 O       -16.2330991024       -1.8167921801        1.8371046936
 C       -17.5059456878       -3.1198537528        0.2826773955
 C       -17.6432596666       -1.9700289381       -0.8229263830
 O       -18.2359091335       -1.0018194816       -0.4284957205
 C       -17.1358035212       -2.0430955652       -2.2881207020
 C       -16.5650447215       -0.5927122214       -2.7089501468
 C       -15.2105007908       -0.4289089035       -1.9493045750
 O       -15.1445358851       -0.3110826703       -0.7457654708
 C       -13.9212287838       -0.3751322674       -2.7980828120
 C       -13.3734562933       -1.8936291805       -2.9688997742
 O       -13.8465513967       -2.7541512231       -2.2787221507
 C       -12.2645257756       -2.2211920482       -3.9878284323
 C       -12.9584841743       -3.0974392184       -5.0409409778
 C       -11.9489639314       -3.6691045021       -6.0686397238
 O       -10.7816943937       -3.7743590892       -5.7504495391
 C       -12.5028225896       -4.0398829687       -7.5377601320
 C       -12.3770287873       -2.6814729814       -8.2329432925
 O       -13.3149373432       -1.9916819529       -8.4995220278
 C       -10.9088851875       -2.1520842402       -8.3876556868
 C       -10.8108391136       -0.8198399169       -9.1385083731
 C       -10.1356903637       -0.9528850861      -10.4370231198
 O        -9.3258138244       -1.8302259862      -10.6595496359
 C       -10.2417332962        0.2287962032      -11.4950983712
 C        -9.3348235071        1.4623161498      -11.0067541057
 O        -9.8253231828        2.5703328653      -10.7498814894
 C        -7.8365873197        1.2562127148      -10.6667984906
 C        -7.2476029415        2.1852121075       -9.5353067231
 C        -6.1290425594        1.5404421644       -8.5505688861
 O        -6.2038651475        0.3894391107       -8.2406142893
 C        -4.8589039069        2.4910186883       -8.1357418228
 C        -3.9911420795        2.4702989992       -9.4260392535
 O        -3.9862402937        3.3746905510      -10.1703779211
 C        -3.3012245865        1.0508839156       -9.7412214437
 C        -1.7988175759        0.8722330442       -9.2619544749
 C        -0.7846997501        1.5851213945      -10.1736862817
 O        -1.0385692908        2.7597482776      -10.4694178943
 C         0.6323632770        1.0936735656      -10.4629223284
 C         0.6376102683       -0.3804993110      -10.8834511412
 O        -0.4285215379       -0.9602503116      -10.9911368747
 C         2.0284890840       -0.9930117231      -11.1238306522
 C         2.0976208814       -2.5453197271      -10.9026403071
 C         3.2103595947       -2.9505041235      -11.8642714321
 O         4.3002385092       -3.2057362374      -11.3442770793
 C         3.0445036362       -3.0109519345      -13.4514785371
 C         4.0694325278       -1.9250307442      -14.0645920389
 O         3.6766690901       -0.8592946737      -14.4828463620
 C         5.5952214327       -2.1617556144      -13.9291709618
 C         6.3323823606       -0.9981349475      -14.6708136437
 C         6.6292298341       -1.3669467600      -16.1427584250
 O         7.2512359479       -2.3852401890      -16.3622606003
 C         6.4258333471       -0.3007813000      -17.3106297595
 C         7.7245354430        0.5538052272      -17.6558835580
 O         7.9793668978        0.8334320626      -18.7942807031
 C         8.5558503596        0.9314753999      -16.4647592024
 C        10.0952756415        0.8692652936      -16.8109273978
 C        10.3832749552       -0.6385334252      -17.3659765911
 O         9.8796079173       -1.5687535881      -16.7695983343
 C        11.3747324425       -0.9080770918      -18.5591249897
 C        10.8676853249       -2.1446215368      -19.3627069654
 O        11.1107447507       -3.2704250765      -19.0563302873
 C         9.9026085965       -1.8187125728      -20.5947443894
 C         9.5026936592       -3.1287306195      -21.2961144862
 C         8.2133530925       -3.7429496741      -20.7255742185
 O         7.9525579112       -3.4412343795      -19.5739303009
 C         7.2728958605       -4.7514347788      -21.4387689551
 C         7.4282583662       -6.0393162897      -20.5565800040
 O         6.6047246177       -6.2286867583      -19.6454863340
 C         8.5787345541       -7.0531769570      -20.8271731196
 C         8.8898888931       -7.8173846024      -19.5824524958
 C         9.5207694477       -6.8449461681      -18.4726059743
 O         9.7580439329       -5.7042708954      -18.8134908331
 C         9.8527779369       -7.4033796140      -17.1017532278
 C         9.0627122500       -6.6693502521      -16.0282715918
 O         9.1172433861       -5.4420991344      -15.8891024425
 C         7.8742808857       -7.3261208241      -15.1772933052
 C         9.7276525727       -8.9867396145      -17.0253976497
 C        11.4197266856       -7.1116812284      -16.9006219807
 C         5.8883737433       -4.1833533257      -21.4188780018
 C         7.6644905247       -5.0766391778      -22.9566503339
 C        11.5071918091        0.2402420953      -19.5877128777
 C        12.7529193745       -1.2628600211      -17.9087174430
 C         5.9608240928       -0.9708404669      -18.6509021160
 C         5.2395736911        0.6583119428      -16.8663202135
 C         3.6327109899       -4.4562275587      -13.9905651890
 C         1.6254398613       -2.8132699301      -13.8646710810
 C         1.4411849665        1.9900520390      -11.5605965256
 C         1.2748078663        1.2185845431       -9.0151726160
 C        -5.3227759979        3.9354309671       -7.8245049157
 C        -4.2541109054        1.9378250339       -6.8351366653
 C        -9.7034068330       -0.2204041959      -12.8721800998
 C       -11.6663326726        0.8619009000      -11.5908026451
 C       -11.6036875849       -5.1216719875       -8.1428772048
 C       -13.9787273505       -4.5475945570       -7.4819085972
 C       -14.0847920485        0.3117690084       -4.1888798267
 C       -12.7097016211        0.3636748527       -1.9955629815
 C       -16.3271210488       -4.2084572815       -0.0000740959
 C       -18.9024282514       -3.7031491409        0.0835057703
 C       -17.1559699810        0.2605846075        6.0382570797
 C       -18.6498579226        1.8758608479        4.7193696261
 H       -14.0770111575        2.2872539850        4.7604866757
 H       -14.8851184356        1.5709197100        6.0120131752
 H       -15.5522198827        3.0771512702        5.5194737168
 H       -18.4358052708       -1.8803124141        4.8378487018
 H       -16.8173072114       -1.9420058841        4.3436918735
 H       -19.3249035736       -2.4018125010        2.5328241560
 H       -18.2799483905       -3.7091725899        3.1406711253
 H       -18.0097369791       -2.2664782050       -2.9543267262
 H       -16.2974525257       -2.8031583938       -2.4228075154
 H       -17.3373161183        0.1348753967       -2.4322520169
 H       -16.5920275957       -0.5455392863       -3.8161977353
 H       -11.3531604716       -2.6290619783       -3.5028739541
 H       -12.0061552063       -1.3073785554       -4.5863016856
 H       -13.6914065526       -2.3983395092       -5.4837410008
 H       -13.4518675140       -3.9206177872       -4.6159227855
 H       -10.2905026271       -2.9131510408       -8.8650650331
 H       -10.4716862112       -2.0528835174       -7.3554572561
 H       -10.3535119906       -0.0572590976       -8.5637902243
 H       -11.8801121681       -0.5144566937       -9.3470807799
 H        -7.2893477300        1.4664068054      -11.5579730043
 H        -7.6273992504        0.2152634506      -10.4433767003
 H        -8.1174551380        2.3803209921       -8.9755936218
 H        -6.9333165874        3.1798046583       -9.9101500247
 H        -3.2940570846        1.0369553582      -10.8755245685
 H        -3.8743224978        0.2555865563       -9.3537785965
 H        -1.5042280003       -0.2064631038       -9.2706911948
 H        -1.6321503801        1.1591919163       -8.2618515540
 H         2.6593718970       -0.4220117638      -10.3923741972
 H         2.1696171624       -0.8289291461      -12.2329747761
 H         1.0943963311       -2.9902663680      -11.1528554298
 H         2.3663814963       -2.8330877747       -9.9001664316
 H         5.9553375146       -3.0917823294      -14.3795574501
 H         5.8330137978       -2.3222646215      -12.8484929500
 H         7.3563044420       -0.9639256030      -14.2705259709
 H         5.9405490616        0.0007575680      -14.6241226497
 H         8.2274618975        0.3965885184      -15.5525195385
 H         8.3511345898        1.9949266237      -16.2925608326
 H        10.8505432574        1.0286181088      -16.0175805737
 H        10.3083400823        1.5662589908      -17.5907399671
 H        10.3375546931       -1.1246388682      -21.2856791376
 H         9.0653670948       -1.2190475751      -20.2634292794
 H        10.2853332470       -3.8915609275      -21.2098045334
 H         9.3184415434       -2.8737592392      -22.3363759708
 H         9.4857218469       -6.5252013210      -21.0067048792
 H         8.2273548811       -7.6621512209      -21.6331002828
 H         9.6152488374       -8.6153733993      -19.7935972787
 H         8.0571496165       -8.3290905469      -19.1092395324
 H         7.4536822586       -8.1523867795      -15.7464149856
 H         7.1680159859       -6.4784838972      -14.8285357946
 H         8.1447186294       -7.5781327891      -14.1728594084
 H         8.6585148781       -9.3193163021      -16.9739815494
 H        10.1947761351       -9.6066294356      -16.2767830453
 H        10.2273002627       -9.4306852019      -17.8919993685
 H        11.6639770525       -6.0670940059      -16.6766187374
 H        11.8933727545       -7.4918749351      -17.8360493008
 H        11.8188786631       -7.6073810897      -16.0541623982
 H         5.2328084720       -4.7067656459      -22.0733050575
 H         5.9353973813       -3.1373974272      -21.8389173691
 H         5.4489328808       -4.2301574339      -20.3965232833
 H         7.0897867951       -5.9549633909      -23.3799886859
 H         8.7288269158       -5.2474278426      -23.0742867937
 H         7.5238152256       -4.2511266049      -23.6053207175
 H        10.4933708981        0.5402945685      -20.0546726828
 H        12.1590798453       -0.1544903165      -20.3873510463
 H        11.9263197917        1.2205594710      -19.2816738011
 H        12.9143065913       -1.0999124667      -16.8337720055
 H        13.5493544357       -0.8332748511      -18.5253286833
 H        12.7615646795       -2.3245077601      -17.8013466496
 H         4.9280615970       -1.3648036210      -18.7348760022
 H         6.7125749597       -1.7071265629      -18.8402424878
 H         5.9343579449       -0.1123747529      -19.4069222493
 H         5.5743646450        1.3968025495      -16.0781500221
 H         4.4445750712        0.0650409865      -16.4403314178
 H         4.9307166398        1.2934932559      -17.6314960101
 H         3.0711835981       -5.4042723227      -13.8632556269
 H         4.5542397121       -4.5048906753      -13.4542843298
 H         3.8165601920       -4.3102700874      -15.1021319531
 H         1.6860931302       -1.9931255355      -14.5864118998
 H         1.0471581680       -2.4849224096      -12.9888162763
 H         1.2243677691       -3.6438990552      -14.3840401282
 H         0.9772732072        2.9863803862      -11.5924557978
 H         1.4886760029        1.4884727935      -12.5043159629
 H         2.4239883858        2.0760379664      -11.1939168900
 H         2.3654948319        1.1072781217       -8.9914543279
 H         0.8462025381        0.3837189301       -8.4805140844
 H         1.0619607574        2.2761434559       -8.7016953448
 H        -5.5372873238        4.2911703043       -8.8430294013
 H        -4.7233168473        4.6450014523       -7.3756059045
 H        -6.2453446317        4.1010462604       -7.2422172380
 H        -5.0400978350        1.7076787573       -6.0809871442
 H        -3.5926024380        2.7618256333       -6.4198024910
 H        -3.6556333439        1.1178669203       -7.0725163370
 H        -9.8057619797        0.5570670582      -13.6036429001
 H       -10.2050130223       -1.1737605703      -13.1213039209
 H        -8.6610087573       -0.4069173335      -12.7611100164
 H       -12.4825372621        0.1457980146      -11.6519807003
 H       -11.7434993969        1.5809088853      -12.4343934306
 H       -11.8853946636        1.5857581972      -10.8679795795
 H       -10.6075780546       -5.1535150900       -7.7505730081
 H       -11.6202386859       -4.8860297532       -9.1963505182
 H       -12.0635493719       -6.1065357575       -7.9345658409
 H       -14.0444123875       -5.3952841563       -6.8435212446
 H       -14.3757970408       -4.7792520436       -8.4693896004
 H       -14.5650831893       -3.7318566478       -7.0121513903
 H       -14.2625369772        1.4252235433       -4.0703824548
 H       -14.8593554752       -0.1060920298       -4.7383311310
 H       -13.1311895140        0.2537396854       -4.7443001207
 H       -12.8978811367        1.4408832233       -2.1716743676
 H       -11.8318590227        0.0693857987       -2.5502759151
 H       -12.6022244482        0.1055403298       -0.9697772992
 H       -16.3183725618       -4.8872381827        0.8271581978
 H       -15.3642557717       -3.7680782270        0.0596265893
 H       -16.3630920418       -4.6724710381       -0.9778442954
 H       -19.0785493713       -4.6885478883        0.5167029467
 H       -18.9808621456       -3.9035908628       -0.9325359578
 H       -19.6740730701       -3.0162045863        0.3806870912
 H       -16.3640564086       -0.4318085962        5.9512969022
 H       -18.0023217700       -0.2500849650        6.4796613118
 H       -16.9931971610        1.0450292791        6.8290662420
 H       -18.5026919263        2.6696658967        5.5071713231
 H       -19.5291805784        1.3456386057        5.1217239665
 H       -18.8184028424        2.3876400966        3.7699544339
 Na      -16.5190755094        0.2979131054        0.9575298858
 Na        9.0100133223       -3.7385867897      -17.5025683717
