232

 C       -13.0462444525      -17.1600669580       -3.0837886685
 C       -13.9227492525      -16.2028768357       -3.8590626206
 O       -13.4935460415      -15.0957148560       -4.1885364557
 C       -15.4162805706      -16.5245755063       -4.0412102104
 C       -16.0327290113      -15.4271158290       -4.9644132427
 O       -16.1378983483      -14.3250472684       -4.5139380604
 C       -16.4050356616      -15.8899041331       -6.4152968745
 C       -16.5708210637      -14.8553318387       -7.4661244599
 C       -15.2847145741      -14.1339397674       -7.7804619006
 O       -14.1738125574      -14.5065538366       -7.3052704846
 C       -15.3530060307      -12.8129260455       -8.6512939024
 C       -15.9486020578      -11.7839352227       -7.5859310269
 O       -16.7134127200      -12.1951519579       -6.6982849763
 C       -15.5148073472      -10.2746870963       -7.6542136452
 C       -15.6940810503       -9.5684010300       -6.3064611322
 C       -14.4843840921       -9.8594277477       -5.3350588930
 O       -13.8951640846      -10.9044670198       -5.3270745351
 C       -13.8963179159       -8.6621831244       -4.6484950531
 C       -13.1232857777       -7.9228238588       -5.7037882904
 O       -13.3548229069       -8.0298336790       -6.8921649587
 C       -12.1493152008       -6.8187225592       -5.2208690303
 C       -11.9276943478       -5.7107516579       -6.3365777559
 C       -13.1026012716       -4.6966271150       -6.3718295333
 O       -14.1590927093       -4.8097846706       -5.7316116069
 C       -12.8874456998       -3.4174440353       -7.2773171547
 C       -11.7900869343       -2.5642614561       -6.3950141206
 O       -11.0510022078       -3.1695566977       -5.6808457137
 C       -11.6814829886       -1.0064702771       -6.6700770085
 C       -10.2230593905       -0.5963266392       -6.7411846215
 C       -10.0516075201        0.8281090904       -6.0227458712
 O       -10.6120686185        1.8286332533       -6.3903983635
 C        -9.0520212737        0.7168126155       -4.7472562016
 C        -7.5637993184        0.3504609898       -4.9327458340
 O        -7.1883742179       -0.5564891543       -4.2965708909
 C        -6.4997991172        1.2666840253       -5.6765999689
 C        -6.8955821431        2.0011607444       -6.9824278991
 C        -6.3080875580        3.4595108064       -7.0961090662
 O        -5.8891596330        4.1229014900       -6.1069147347
 C        -6.1869160630        4.0597993398       -8.5069504705
 C        -5.1680283189        3.1688752734       -9.3359537128
 O        -5.5634571643        2.2712583761      -10.0461623773
 C        -3.6138595134        3.4010766643       -9.2538217599
 C        -2.6368668908        2.0866085826       -9.0913334936
 C        -1.6022688438        2.3423164243      -10.2074681351
 O        -1.8724569177        2.5861896664      -11.3962595597
 C        -0.0621346280        2.0995472790       -9.7503907760
 C         0.8905959342        2.0276065105      -11.0142198790
 O         1.4180671644        0.9693657609      -11.3579617025
 C         1.1478602883        3.4642697093      -11.6773882532
 C         2.4464571886        4.2716947847      -11.3096933398
 C         2.2933703059        5.6617027305      -11.8390005001
 O         1.4665381420        6.4477971439      -11.3968013450
 C         3.3085608188        6.2018964804      -13.0299055962
 C         3.6548969749        5.0359012732      -14.0096025144
 O         4.7064564512        4.4759618851      -13.9270194043
 C         2.5900181349        4.5783931876      -14.9681884990
 C         2.6476342188        5.3479702717      -16.2518011979
 C         3.8611463013        4.7277189474      -17.1540502080
 O         4.2206172146        3.6202956826      -16.8389254801
 C         4.2509019771        5.2403018388      -18.4660537745
 C         6.0005782290        5.3821715871      -18.3411604368
 O         6.5697311045        5.1750737005      -19.3872524159
 C         6.6656673037        5.7292022861      -17.0796769150
 C         8.1226726330        5.1373013784      -16.9787398417
 C         8.2510451227        3.6162821675      -17.1982954827
 O         7.5858467636        2.7157541732      -16.7895765254
 C         9.7075010996        3.2291412336      -17.9123305638
 C        10.6056732201        3.2186965439      -16.6785881283
 O        10.5281268645        4.2031820667      -15.9296834828
 C        11.6113832222        2.1568217314      -16.2670900090
 C        12.3095170825        2.5952093428      -14.8963418779
 C        11.3663754454        2.3734502722      -13.6347873428
 O        10.3517789703        1.6706520486      -13.7237020589
 C        11.6234340516        3.0234001941      -12.2782875342
 C        10.5218923166        2.4253751670      -11.2545251034
 O        10.8874682038        1.6710095572      -10.3535225186
 C         9.0491467452        2.8322390820      -11.3763672900
 C         8.1710058987        1.5963013550      -11.2717311092
 C         7.1551173852        1.5094641986      -12.3375245994
 O         6.9754848582        2.3942626717      -13.1411182086
 C         6.1525053604        0.2242743908      -12.3495500315
 C         6.0794884293       -0.2206459685      -13.8353861982
 O         5.4639010185        0.4821979293      -14.6634022105
 C         6.7406288293       -1.5544289415      -14.1192779186
 C         6.4984555298       -0.7870463769      -11.2909852463
 C         4.8077172483        1.0139595356      -11.8338558093
 C        13.1619702396        2.8792161213      -11.8655394145
 C        11.2838731813        4.6170874656      -12.4383988224
 C         9.6132112590        1.8987845420      -18.5646829658
 C        10.2496571607        4.2116842101      -18.9324718260
 C         3.7576837494        4.4101115208      -19.6122179876
 C         3.7577066190        6.6938916212      -18.7999073639
 C         2.6565958173        7.4569015758      -13.6716092722
 C         4.6119163295        6.6269602078      -12.3715618314
 C         0.4642126585        3.2195181885       -8.8214555149
 C        -0.0842245158        0.6517755623       -9.0946427580
 C        -7.5708672112        3.9996494209       -9.1973011523
 C        -5.5670178860        5.4588168462       -8.4522428902
 C        -8.9455124692        2.1727022828       -4.0477328739
 C        -9.6895431636       -0.3055723527       -3.7960523111
 C       -12.2302902646       -3.7416107114       -8.7168316423
 C       -14.2609910519       -2.7514739934       -7.5406739633
 C       -14.9499367626       -7.6802778769       -3.9835433984
 C       -12.9907437768       -9.1484144591       -3.4426038188
 C       -13.9377381326      -12.4368764881       -9.1668916751
 C       -16.3977856477      -12.8058455915       -9.7606317415
 C       -15.7680006196      -18.0043031105       -4.4963429690
 C       -16.1016753973      -16.2188549666       -2.5994502400
 H       -13.2648163890      -18.2251985652       -3.2493865738
 H       -13.1285035264      -16.9801375454       -2.0222546681
 H       -12.0212110682      -17.0918008784       -3.3946434929
 H       -17.3329378933      -16.4477316058       -6.4352381554
 H       -15.6802845611      -16.6137919485       -6.7965369020
 H       -17.2288348013      -13.9730698141       -7.1928090908
 H       -17.0599247227      -15.3192807168       -8.3365884610
 H       -16.0196806636       -9.6988430211       -8.4110324340
 H       -14.4437590208      -10.2543959765       -7.9706957516
 H       -16.5838296500      -10.0734372166       -5.8224059755
 H       -15.7704450679       -8.4819481454       -6.3927701792
 H       -11.1740689746       -7.2538260617       -4.8791400328
 H       -12.5274724241       -6.1996597330       -4.3682131697
 H       -11.6298764161       -6.2299971133       -7.2651351848
 H       -11.0464030303       -5.1669307272       -6.0572311396
 H       -12.1165248746       -0.5394497333       -5.7424821176
 H       -12.4215055842       -0.8075035516       -7.5117893182
 H        -9.9115146959       -0.6208522971       -7.8092921668
 H        -9.6782442415       -1.3581111743       -6.2317634854
 H        -5.5972632220        0.7377708825       -5.9780998176
 H        -6.0619859613        1.8550364074       -4.9460607601
 H        -7.9908738778        2.1750798995       -7.0890163373
 H        -6.6498547262        1.3696134902       -7.7972643772
 H        -3.5095302510        4.1393162386       -8.4527021101
 H        -3.4137522982        3.9227799850      -10.1906757752
 H        -3.1569331866        1.2008678826       -9.1885741424
 H        -2.0484982408        2.3222165792       -8.2001656340
 H         0.3713380347        4.1386088822      -11.3569623963
 H         1.0544217817        3.3897615097      -12.7383417620
 H         3.2147348938        3.8419853403      -11.7997757842
 H         2.8022627596        4.3474723600      -10.2688141596
 H         1.6191767414        4.7251588018      -14.4640846574
 H         2.5308825306        3.4782358812      -15.1211226472
 H         2.7981502073        6.4267713027      -16.0322640560
 H         1.7551028475        5.1422615152      -16.9043796350
 H         6.1619474972        5.5585603737      -16.1725851855
 H         6.8138715688        6.7944721642      -17.0608607245
 H         8.5061440673        5.3029860244      -15.9369747169
 H         8.8278720056        5.6904583639      -17.5959821124
 H        12.4652885173        2.0249256718      -17.0223754169
 H        11.0963403941        1.1854287743      -15.9980848568
 H        12.5471374784        3.7165907956      -14.8044233237
 H        13.3572184855        2.2463327538      -14.9514753320
 H         8.9042562627        3.4502992477      -12.2360199427
 H         8.8566134264        3.5544632859      -10.6149550362
 H         7.7397982571        1.5744460863      -10.2639920253
 H         8.7188027855        0.6651219145      -11.1688666904
 H         6.3897120059       -2.3156642889      -13.3465957852
 H         7.8374784367       -1.3632980305      -13.9509627081
 H         6.5339802966       -1.9683773402      -15.0500420222
 H         5.6919149016       -1.4221231903      -11.1028925186
 H         6.7581500594       -0.3356668261      -10.3363843122
 H         7.4103551296       -1.3787531169      -11.4703499745
 H         4.5286661449        0.5390345214      -10.8715515695
 H         4.0807918722        0.7792065471      -12.7343858287
 H         4.8714083924        2.0812328846      -11.7794711865
 H        13.8037801573        3.2687710866      -12.6527143944
 H        13.3548534587        1.8460411167      -11.7643858842
 H        13.2382274508        3.4550678969      -10.9674670456
 H        12.0856634731        5.1970401209      -12.8555975261
 H        11.2529841459        5.0949742307      -11.4759741723
 H        10.3555579658        4.8059567879      -12.9762554247
 H         8.9748196541        1.1483265193      -18.0927648507
 H        10.5871761196        1.4511992754      -18.4310647956
 H         9.2834223720        1.9021359230      -19.6054271745
 H        10.6169383414        5.1614669266      -18.4769321223
 H         9.3845921998        4.4972959161      -19.6211769818
 H        11.0158841851        3.7520367149      -19.4958262323
 H         4.5848868306        4.2070150698      -20.3607321883
 H         3.0083723100        4.8669734634      -20.2349440686
 H         3.4332876461        3.4686828097      -19.1861287978
 H         4.1270438204        7.0352339240      -19.7435164889
 H         4.1694389229        7.3624798498      -18.0376723234
 H         2.7157217028        6.7329729539      -18.6533082727
 H         2.3802986084        8.1752069286      -12.8870516478
 H         1.9309077756        7.2326655189      -14.3715001772
 H         3.5131995938        7.9354827794      -14.1911514271
 H         5.4110343581        6.8445833222      -13.0363031147
 H         5.0817330595        5.8384586956      -11.7376997351
 H         4.6788971108        7.3635601861      -11.5083650155
 H         1.4620638133        2.9752114676       -8.5547734437
 H        -0.1937427173        3.2485354213       -7.9275798276
 H         0.2223439916        4.2036405538       -9.1699526261
 H        -0.4285660080        0.7094259410       -8.0626160050
 H         0.8440570402        0.2356206529       -9.3252320261
 H        -0.7118718803       -0.0071275331       -9.6659197915
 H        -7.7270963017        3.0050944773       -9.4624904423
 H        -7.5913713038        4.4722050584      -10.1914925415
 H        -8.3553892300        4.3184637135       -8.5743064347
 H        -5.6511820798        6.0205191447       -9.3714136629
 H        -4.5074238319        5.4525439791       -8.0815627615
 H        -5.9951315869        6.0220335024       -7.6397585889
 H        -9.8666917914        2.6792197208       -3.8389828663
 H        -8.2041414346        2.7360313522       -4.6390378465
 H        -8.4763783466        2.0221743054       -2.9906959495
 H        -9.3346276864       -0.0744165995       -2.7591110678
 H        -9.4191025099       -1.2784743527       -4.1745106986
 H       -10.7569060187       -0.1880381728       -3.5837632570
 H       -12.1834080281       -2.7582277709       -9.1933148043
 H       -12.9522474056       -4.3241634647       -9.2460930231
 H       -11.2632045088       -4.1590152402       -8.6417258436
 H       -14.4316892841       -2.8456392118       -8.5802860134
 H       -14.2761695853       -1.7293250315       -7.2387529530
 H       -14.9528943621       -3.2949304353       -6.9981894391
 H       -15.6508829927       -7.3118881280       -4.7419907022
 H       -14.6236979584       -6.8601694954       -3.4204366733
 H       -15.6036945816       -8.1349025396       -3.2581700840
 H       -12.3444510395       -9.9530363767       -3.7184864458
 H       -13.6524178739       -9.5930402952       -2.6075746614
 H       -12.4254937814       -8.2843127944       -3.1626044207
 H       -13.2793177213      -12.5037162424       -8.3156114124
 H       -13.8729259331      -11.4358737096       -9.5820098557
 H       -13.6990517014      -13.1152800893       -9.9773712949
 H       -16.2489887952      -11.8499094543      -10.3470557227
 H       -17.3960903721      -13.1544833169       -9.2995614068
 H       -16.1000788565      -13.4685313142      -10.5761726215
 H       -15.1795253893      -18.2319162007       -5.4151446308
 H       -16.8226011453      -18.1412714020       -4.5943356420
 H       -15.4037583327      -18.6956825327       -3.8491476155
 H       -15.9848069889      -15.2564537696       -2.1211003908
 H       -15.6384835770      -16.9114205025       -1.9402529517
 H       -17.1279592196      -16.5597190294       -2.5982308189
 Na      -14.1683137589      -13.2811443638       -5.5350403004
 Na        5.6098275536        2.6899906625      -15.2427598852
