232

 C       -15.1753529451        2.2395886905        5.0446705078
 C       -16.1957101425        1.7559243280        4.0730785168
 O       -15.9455348022        1.7667725210        2.8621761009
 C       -17.5194338824        0.8900949450        4.5657593928
 C       -17.9622355469       -0.2018231363        3.5941007968
 O       -18.3265498711        0.1419048717        2.4742259246
 C       -17.8927395540       -1.7700000048        4.0474180851
 C       -18.2098707322       -2.6228001553        2.7638275358
 C       -17.1585258632       -2.4318385846        1.7371559436
 O       -16.1709497438       -1.7719578372        1.8970235183
 C       -17.4557838103       -3.1217993109        0.2745766345
 C       -17.5373935138       -1.8756352651       -0.8381977202
 O       -18.1759597105       -0.9107284861       -0.4718549803
 C       -17.0979593417       -1.8588015218       -2.2814861002
 C       -16.5327413260       -0.5358128393       -2.5669095241
 C       -15.1915229393       -0.3449246505       -1.9824730137
 O       -15.0770518713       -0.3613876428       -0.7784662981
 C       -13.8365794209       -0.4238649246       -2.8436340019
 C       -13.3921444622       -1.9664281305       -2.9087925724
 O       -13.8289148271       -2.7655560898       -2.1176082259
 C       -12.4236068770       -2.3601918454       -3.9541259744
 C       -13.0496026810       -3.2279373537       -5.0698921567
 C       -12.0092821128       -3.7559825221       -6.0573787361
 O       -10.7986103098       -3.9060344019       -5.7382529549
 C       -12.5114946452       -4.0196041696       -7.4737464938
 C       -12.4939960519       -2.5720455500       -8.2577072235
 O       -13.5291555800       -2.0440150073       -8.5969738323
 C       -11.0906721840       -2.1084825957       -8.4007080959
 C       -10.8906047518       -0.7426956576       -9.0908828961
 C       -10.0083768151       -0.8698436530      -10.4452066292
 O        -9.2822739380       -1.7639377877      -10.6877247749
 C       -10.1279431077        0.3068568222      -11.3770993960
 C        -9.2793337939        1.4630707317      -10.8414050359
 O        -9.8798777664        2.4660498283      -10.6218607996
 C        -7.7726674211        1.1846018108      -10.5875659110
 C        -7.2529948081        2.1920456835       -9.4591821738
 C        -6.2201651224        1.5623846108       -8.5563355601
 O        -6.2123987144        0.3630302942       -8.3369786185
 C        -4.9887675769        2.4395779944       -8.0217039737
 C        -3.9901146460        2.3789055286       -9.3402192809
 O        -4.1202552632        3.3187219780      -10.1482891261
 C        -3.2673529550        1.0636207735       -9.7770656049
 C        -1.8486690734        0.8924027963       -9.3812904577
 C        -0.8496387514        1.7308620951      -10.2040665345
 O        -1.1533104673        2.8511814104      -10.6465174761
 C         0.6004897311        1.1400402588      -10.4216581060
 C         0.6238762865       -0.3176999706      -10.9853880727
 O        -0.3439688011       -1.0139413868      -11.1575598509
 C         2.0915293212       -0.8922239417      -11.2071679029
 C         2.0599745896       -2.4416103331      -11.0148445399
 C         3.2402691683       -2.9752688622      -11.8273935555
 O         4.3655982513       -3.0294935972      -11.3784095486
 C         3.1315388437       -2.9685607192      -13.3957174934
 C         4.0869525870       -1.9011587692      -13.9199154490
 O         3.6699385437       -0.9095772893      -14.4454773880
 C         5.6744064101       -2.1282187446      -13.9234099115
 C         6.3892478876       -0.9878211278      -14.6872935948
 C         6.7016514412       -1.3219069264      -16.1909789904
 O         7.0052543186       -2.4265033225      -16.5945902410
 C         6.4412725711       -0.2093527390      -17.2810488273
 C         7.7106187289        0.6257629090      -17.5905345019
 O         8.0260912292        0.8276944765      -18.7810442027
 C         8.7936324724        1.0268079898      -16.5333942572
 C        10.2281233368        0.8277359365      -16.9739690804
 C        10.3814132692       -0.6250562419      -17.4090714285
 O         9.7787666563       -1.5480878923      -16.8706504680
 C        11.3851846307       -0.9891513127      -18.6464445417
 C        10.7557315613       -2.2033345686      -19.3127494477
 O        11.1798474988       -3.3304477422      -19.0348262209
 C         9.9614722823       -1.9552315283      -20.6350973319
 C         9.4878213234       -3.1413471106      -21.3654595862
 C         8.2879897280       -3.7728597922      -20.6546239909
 O         7.8743354931       -3.4691595310      -19.5347173815
 C         7.4011305434       -4.7193560169      -21.4892561569
 C         7.3653767398       -6.0698297936      -20.5440044068
 O         6.5879002735       -6.0426299712      -19.6273624005
 C         8.4142155081       -7.1794466341      -20.7915619206
 C         8.8498332429       -7.9303198795      -19.5294994943
 C         9.5303845591       -7.0121765907      -18.4696916597
 O         9.7806653598       -5.8893556241      -18.8489402284
 C         9.8663087642       -7.5253757299      -17.0773529294
 C         9.0410970519       -6.5865822755      -16.0324877597
 O         9.1383362286       -5.3867136320      -15.9443426581
 C         7.9813030888       -7.3790319210      -15.1780946398
 C         9.7246916690       -9.0337783046      -16.9867497277
 C        11.3948927810       -7.1135170563      -16.7705540816
 C         5.9582748501       -4.1330994575      -21.5013380980
 C         7.9866696208       -4.9612895009      -22.8644602053
 C        11.5071735637        0.1824125785      -19.6311202464
 C        12.7013230934       -1.3252528964      -17.9723568324
 C         5.8713825108       -0.9225886537      -18.5976445656
 C         5.1576903662        0.7596503994      -16.9652869974
 C         3.7541198822       -4.4141365058      -13.9185828387
 C         1.5802036102       -2.8981744535      -13.8569083999
 C         1.4035566083        2.0945375288      -11.4508428355
 C         1.3075735715        1.1219741038       -9.0604467545
 C        -5.2708066255        3.9626180472       -7.8993550000
 C        -4.1882021859        1.8552366687       -6.6993757071
 C        -9.6685649455       -0.1467197733      -12.8164046404
 C       -11.7283163543        0.7743497784      -11.4560987158
 C       -11.5845087874       -5.1186596725       -8.1852464390
 C       -13.9490975593       -4.5240524317       -7.4739722530
 C       -14.0621502611        0.2100567195       -4.2304612848
 C       -12.7286524113        0.3909853365       -2.1098200468
 C       -16.4196402294       -4.1408228451        0.0986558414
 C       -18.8626672390       -3.8466643205        0.3037820486
 C       -17.2866167835        0.2469889395        6.0038014372
 C       -18.7112018732        1.8941972874        4.7292183131
 H       -14.4111104391        2.7025349732        4.4242138128
 H       -14.5402836396        1.5247358785        5.5730978048
 H       -15.6087916231        2.8579483675        5.7944132900
 H       -18.6206787932       -2.1509448214        4.8331499087
 H       -16.9331430742       -2.0417613774        4.4286312894
 H       -19.1730612120       -2.4230205157        2.3811862491
 H       -18.2394601977       -3.7210156688        2.9919933543
 H       -17.9559369539       -1.9165696976       -2.9722814033
 H       -16.3399710069       -2.6447296079       -2.4791008853
 H       -17.3166821072        0.1644076709       -2.1680472376
 H       -16.6216640654       -0.3841706674       -3.6232914198
 H       -11.6933049665       -2.9933990973       -3.4065599078
 H       -11.8451334325       -1.5093378012       -4.4523286033
 H       -13.8399520234       -2.7036861800       -5.5433571622
 H       -13.4505133144       -4.1483723560       -4.5899848154
 H       -10.5274805655       -2.8973734243       -8.9667701830
 H       -10.7290890913       -2.1973755537       -7.4140534055
 H       -10.3682934662       -0.0134757192       -8.4323372474
 H       -11.8997916824       -0.3624601054       -9.2292420003
 H        -7.0892831409        1.2801170134      -11.5056204856
 H        -7.6339388905        0.1675000774      -10.1684323727
 H        -8.1867411502        2.5372887365       -8.9391803994
 H        -6.7218424709        3.0726816782       -9.8833676900
 H        -3.3821194457        1.0844617368      -10.8553194449
 H        -3.8311699483        0.1723540837       -9.3734315163
 H        -1.5397557018       -0.1639145067       -9.4182226748
 H        -1.7062836473        1.0975089702       -8.2803323976
 H         2.6272268573       -0.5112589588      -10.3464329320
 H         2.4538473249       -0.5965196015      -12.1873038698
 H         1.0736707747       -2.8700703373      -11.1930343586
 H         2.3264473110       -2.5957160627       -9.9978981714
 H         6.0870758169       -3.1081188850      -14.2194355146
 H         5.9117094966       -2.1168857257      -12.7851719010
 H         7.2849275604       -0.6571403801      -14.1509929705
 H         5.7544949778       -0.1109927243      -14.8657469548
 H         8.6111117768        0.6558961015      -15.5348253228
 H         8.7348095049        2.1305435055      -16.5263499057
 H        10.9763447620        0.8626645222      -16.1945226294
 H        10.5476187316        1.4656145683      -17.8008491720
 H        10.5267985528       -1.1823632167      -21.2049757603
 H         9.1007549548       -1.3100372220      -20.3684334425
 H        10.2704939452       -3.9203244821      -21.3903742532
 H         9.1703615471       -2.8684703353      -22.3912209000
 H         9.3212374646       -6.8078171346      -21.2640060894
 H         7.8569687790       -8.0133330538      -21.3056586892
 H         9.5681330227       -8.6595584954      -19.8880437728
 H         8.0477620629       -8.5490982847      -19.0877833956
 H         7.3880895657       -7.8695089844      -15.9100019828
 H         7.5315357736       -6.8619956854      -14.3651591519
 H         8.5044529825       -8.1019224298      -14.6166812454
 H         8.7832672066       -9.3420978799      -16.6477799448
 H        10.4795569316       -9.5825639224      -16.4362870895
 H        10.0140612750       -9.5697592579      -17.9308477990
 H        11.4226246370       -6.0897556604      -16.5016518920
 H        11.8722143967       -7.2832120712      -17.6834853401
 H        11.9071940579       -7.6084224672      -15.9894711859
 H         5.2471788806       -4.4663194943      -22.1998878164
 H         5.9862582869       -3.0438906929      -21.6243567797
 H         5.6356485540       -4.4196349619      -20.4837582994
 H         7.2219107446       -5.5495238265      -23.4334489796
 H         8.8921807140       -5.5754311181      -22.8951380450
 H         8.2860551226       -4.0820439225      -23.4932517674
 H        10.5318163932        0.5546206277      -19.9170898291
 H        12.0613786747       -0.1916088231      -20.5125535405
 H        12.0138811277        1.0418368939      -19.3439382955
 H        12.5881111119       -1.5306307604      -16.9377045479
 H        13.4404692659       -0.5375651918      -18.2165632283
 H        13.0301942551       -2.2878133763      -18.2229371037
 H         4.9595044736       -1.4735121097      -18.4863114919
 H         6.6650561496       -1.6192256968      -19.0340774675
 H         5.5806885468       -0.0536926976      -19.2393287149
 H         5.2566716485        1.3967498321      -16.0485282763
 H         4.1979102295        0.1713201677      -16.8374954419
 H         5.1258724838        1.4960751679      -17.7358602016
 H         3.1477645004       -5.3137748401      -13.5636907572
 H         4.7255804971       -4.4616479835      -13.4384402222
 H         3.7424793120       -4.4731893806      -15.0082094457
 H         1.5847010377       -2.2997303814      -14.7396141500
 H         1.0201734582       -2.4231693273      -13.1325878966
 H         1.2114658591       -3.9162147752      -14.1120621963
 H         1.0558713530        3.0165076057      -11.0884164326
 H         0.9627502921        1.9527756571      -12.4161329034
 H         2.4672171375        2.0318079129      -11.5004582559
 H         2.2068658058        0.4911970787       -9.1282333178
 H         0.5617514640        0.4636376153       -8.5384697016
 H         1.6400037493        2.1075042038       -8.6725552511
 H        -5.7057575547        4.3292507258       -8.8026711434
 H        -4.4369793027        4.6331385182       -7.6938477837
 H        -5.8977944819        4.2947713512       -7.0603687274
 H        -4.8190207996        1.6085861045       -5.8865917925
 H        -3.5042811017        2.6331750284       -6.4417390947
 H        -3.5822449782        1.0309889815       -7.0009367190
 H        -9.5682055608        0.7589219892      -13.4413329046
 H       -10.4391695612       -0.8152246719      -13.1306643421
 H        -8.6945880102       -0.7296108232      -12.7818172351
 H       -12.3450861913       -0.0164814279      -11.8937584581
 H       -11.7985078596        1.6120903378      -12.0851814043
 H       -12.2165250610        1.2305807240      -10.6284149615
 H       -10.5615543619       -5.1130203339       -7.7005148860
 H       -11.5207521263       -4.7952292473       -9.2262897725
 H       -11.9677117768       -6.1051656775       -8.0898318425
 H       -14.0714776956       -5.3663281823       -6.8650424276
 H       -14.3637313677       -4.7628329373       -8.4552940027
 H       -14.4915155270       -3.6670901537       -7.1192684256
 H       -14.4393448691        1.2302358466       -4.1645755836
 H       -14.8340395305       -0.4744736641       -4.7000000885
 H       -13.1114359407        0.2765305236       -4.8967669543
 H       -13.0481703183        1.3826283160       -2.0942233576
 H       -11.9007443975        0.2485504607       -2.8400772366
 H       -12.3972098574       -0.0223174334       -1.1717015286
 H       -16.7490372978       -5.0385658168        0.7259591670
 H       -15.4651696151       -3.8636246020        0.5896658460
 H       -16.1742550442       -4.3837137702       -0.8815710062
 H       -18.9090834991       -4.4940020259        1.1511910538
 H       -19.1545711934       -4.4980798891       -0.4638557670
 H       -19.6295316238       -3.0424776970        0.3932699556
 H       -16.4440083410       -0.4457389603        6.0730173603
 H       -18.2305502083       -0.1671603322        6.5339356680
 H       -17.1801946351        1.0336330031        6.6878123276
 H       -18.4653659946        2.6157993333        5.5452249150
 H       -19.5838503842        1.3875261147        5.2172918561
 H       -18.9010885284        2.4957091555        3.8690755657
 Na      -16.4766414792        0.2866509593        0.9694687322
 Na        9.1378726896       -3.8009374796      -17.5058979539
