232

 C       -16.0816137921        3.2495497325        4.6701402027
 C       -16.4640150912        1.9981502543        4.0011084062
 O       -15.8360290416        1.6144369526        3.0496823589
 C       -17.8061177104        1.2440279614        4.4897019379
 C       -18.1675018853        0.0685642667        3.4775593967
 O       -18.2816927707        0.2616489903        2.2779819461
 C       -18.2640485956       -1.3220161098        4.0742879685
 C       -18.4162037049       -2.3781147836        2.9870590198
 C       -17.2052384632       -2.2768986000        2.0492912817
 O       -16.2339968466       -1.6226580541        2.2420692353
 C       -17.3805654479       -2.9240268500        0.5646537248
 C       -17.4245140577       -1.8178263678       -0.4614043174
 O       -17.9001111650       -0.6928630707       -0.2268041869
 C       -17.0004119167       -2.0497298413       -1.9186534525
 C       -16.4105093490       -0.7512120377       -2.6039358329
 C       -15.0293956020       -0.3393034358       -1.9447039555
 O       -14.8903269829        0.1582963835       -0.8306013394
 C       -13.8088864856       -0.6702622860       -2.8552546239
 C       -13.6185235213       -2.2710122157       -2.7798944027
 O       -14.1770414823       -2.8835978166       -1.8641721747
 C       -12.6647657115       -3.0492061667       -3.7555467501
 C       -13.4148645544       -3.4857125686       -5.0454625696
 C       -12.3960018219       -4.1730524046       -6.0710483558
 O       -11.3522325928       -4.5066291781       -5.6278700445
 C       -12.8972111793       -4.3095808890       -7.5094969975
 C       -12.9560521694       -2.8702678306       -8.1236671834
 O       -13.9964643759       -2.3129711069       -8.4006688331
 C       -11.5751525466       -2.3087393420       -8.4497236439
 C       -11.5801590237       -1.0228291903       -9.2554143866
 C       -10.5301501790       -0.9042354409      -10.3315835381
 O        -9.9211970615       -1.8818171080      -10.7380296998
 C       -10.3299568249        0.5362370283      -10.9809852832
 C        -9.5524823644        1.4112600680      -10.0283877950
 O       -10.1228530056        2.2111483084       -9.3045361750
 C        -8.0326102334        1.3329104749       -9.9491160528
 C        -7.4503739527        2.1894304417       -8.7267371758
 C        -6.1905160784        1.4887052675       -8.1749096610
 O        -6.4164649251        0.4599456201       -7.5663588588
 C        -4.7305312519        2.2873260004       -7.9608653808
 C        -4.0650885499        2.3880903815       -9.3423207933
 O        -4.1631472920        3.3161044444      -10.0870510325
 C        -3.3729447291        1.1035016593       -9.8827710121
 C        -1.8724607488        0.8823220304       -9.6388283928
 C        -1.0172213790        1.7548073601      -10.6957093617
 O        -1.4554729039        2.3869675477      -11.5829083995
 C         0.5159217314        1.5509186081      -10.5642691609
 C         0.8657599918        0.2818148183      -11.4714185813
 O        -0.0216007141       -0.4429853114      -11.9024988672
 C         2.2775874137       -0.0821874411      -11.8181270783
 C         2.3895743077       -1.5399219798      -11.3876747216
 C         3.6066071775       -2.3048438171      -11.9451237171
 O         4.5241680170       -2.4590871893      -11.1616962669
 C         3.6453339317       -2.9955219875      -13.3729433070
 C         4.5395051513       -1.9569020140      -14.2982456525
 O         4.0631229116       -0.9619390070      -14.8573960342
 C         6.0222943311       -2.1984025583      -14.2895899234
 C         6.6740952094       -0.9975975709      -14.9794808753
 C         6.5838181273       -1.0645976990      -16.6205495791
 O         6.9009475851       -2.0988607074      -17.1391345841
 C         6.4327090754        0.2275108969      -17.4958222172
 C         7.8613356510        0.4462625484      -18.0496830495
 O         8.1367017143       -0.0706298388      -19.1051929558
 C         8.8906944959        1.0277913102      -17.0966284867
 C        10.3294495636        0.6852220298      -17.4763192648
 C        10.5306871437       -0.8470455604      -17.7001887855
 O         9.7585838103       -1.5887167598      -17.1463099103
 C        11.7265900035       -1.2903080173      -18.6830885856
 C        11.2640221696       -2.5468718967      -19.5509333726
 O        11.7154321678       -3.6557819835      -19.3478419297
 C        10.2798797478       -2.1890496268      -20.7043953711
 C         9.7194921611       -3.3466013699      -21.4901398127
 C         8.5389973984       -4.0044301305      -20.6869526914
 O         8.0386326017       -3.5935916060      -19.6307636314
 C         7.8085465124       -5.1466651287      -21.5197850713
 C         7.3579833757       -6.1426264075      -20.4099350354
 O         6.5623620892       -5.8013820808      -19.5725868273
 C         7.7588019610       -7.6520819700      -20.4655055269
 C         8.1488893317       -8.2344810043      -19.0802239261
 C         9.1336013663       -7.2057626550      -18.3924622941
 O         9.4154788798       -6.1796885274      -19.0278613485
 C         9.6679937531       -7.4882018944      -16.9934820811
 C         8.8904473002       -6.7705529691      -15.8842435843
 O         8.7138517714       -5.5766081944      -16.1020874813
 C         8.3293028956       -7.2985739238      -14.5758564193
 C         9.9056502252       -8.9877490953      -16.7972356727
 C        11.1221622904       -6.7909553704      -16.9629786536
 C         6.6061638822       -4.4150052892      -22.1398364011
 C         8.6486893469       -5.7853205538      -22.6598925731
 C        12.1132689396       -0.0991281605      -19.5337526179
 C        12.9443010199       -1.7079074538      -17.8151553372
 C         5.3699181881        0.0307449649      -18.6399682179
 C         5.8360606322        1.3764040906      -16.6644279807
 C         4.4408898185       -4.2370843391      -13.0985769781
 C         2.2503571534       -3.3835011050      -13.9457010890
 C         1.3747141283        2.7841123983      -11.0228070570
 C         0.9849848233        1.1444385616       -9.1780507313
 C        -4.8945517766        3.7413194784       -7.5256874215
 C        -3.9173128640        1.3809887385       -6.9113843905
 C        -9.5614882978        0.3849121516      -12.4226445511
 C       -11.7454852158        1.2899490089      -11.2182443737
 C       -11.8247993201       -5.1254538056       -8.3381995588
 C       -14.1961029523       -5.0009358675       -7.5098427528
 C       -14.0430911454       -0.1803289957       -4.3452195462
 C       -12.4351972125        0.1005493855       -2.3585356566
 C       -16.1228949899       -3.8753149033        0.3500069644
 C       -18.6455257252       -3.8478747107        0.4041246997
 C       -17.6643348507        0.7811768365        5.9923606646
 C       -19.0103488605        2.3095011280        4.5071561788
 H       -16.3345345261        3.3334887014        5.7433009038
 H       -16.4602872175        4.0793397111        4.1119718408
 H       -14.9729518528        3.3800084085        4.5414826310
 H       -19.1701116582       -1.3035480529        4.7231857482
 H       -17.4351919570       -1.6258864986        4.6390656828
 H       -19.2482335668       -2.1568049771        2.3116555450
 H       -18.6294395068       -3.4681681193        3.3260193989
 H       -17.9665640533       -2.1918936512       -2.4549881089
 H       -16.3723948003       -2.9283939710       -2.1176373548
 H       -17.1479840194        0.0836385948       -2.5637731426
 H       -16.1707596572       -1.0281482111       -3.6090282685
 H       -12.2322201088       -3.8597364472       -3.1766302239
 H       -11.8307715112       -2.4476788430       -4.1487120208
 H       -14.0389692513       -2.7316986945       -5.3582590920
 H       -14.1153104246       -4.3175652541       -4.7881650917
 H       -10.9692071656       -3.0068328590       -9.1146214961
 H       -11.0559766459       -2.2106598358       -7.5105920009
 H       -11.2782081221       -0.2478381735       -8.4920754812
 H       -12.5576753428       -0.7018598803       -9.5689110233
 H        -7.6149224863        1.9862583913      -10.7067672291
 H        -7.7391124392        0.3467175553       -9.9326441985
 H        -8.2407767933        2.1212067196       -8.0003238297
 H        -7.3755763105        3.1393332152       -9.1676760109
 H        -3.6548890093        1.0757443354      -10.8746221298
 H        -3.9984975536        0.2834572063       -9.4388960687
 H        -1.5458521658       -0.0959393234       -9.8978932277
 H        -1.6748524724        1.1093309979       -8.5779376249
 H         3.0541568184        0.5814975804      -11.3170424856
 H         2.6369084897        0.1454114417      -12.8664271432
 H         1.3957104542       -2.0423679064      -11.5021658257
 H         2.5692863130       -1.4440391313      -10.2721767057
 H         6.3929919095       -3.1208193632      -14.6568561170
 H         6.2241806595       -2.1523687007      -13.2163767067
 H         7.7439676543       -1.0336021777      -14.8576145498
 H         6.2375434648       -0.0412445716      -14.7495790250
 H         8.7489336557        0.6343553935      -16.0904603119
 H         8.8598727315        2.1443881491      -17.0943228225
 H        10.9780780146        0.7384508697      -16.6536322379
 H        10.6315552092        1.1871536690      -18.3902315192
 H        10.8647253836       -1.5960382976      -21.3885085854
 H         9.5553811034       -1.5008584316      -20.3421028913
 H        10.4140770698       -4.1592607638      -21.6445365443
 H         9.3679639999       -3.0322844951      -22.4787027074
 H         8.5816611646       -7.7950614345      -21.1331635754
 H         6.9051311802       -8.1214593525      -20.9248323459
 H         8.6988364375       -9.1751452604      -19.1585645384
 H         7.2550561701       -8.4485778862      -18.4673643046
 H         8.6326178945       -6.5823417054      -13.7493101757
 H         8.6526009379       -8.2934809083      -14.2069569983
 H         7.1686120902       -7.3108072905      -14.7005645968
 H         8.9541604757       -9.4957009746      -17.0379057914
 H        10.1995101532       -9.1754848663      -15.7641615300
 H        10.4679733804       -9.3274378315      -17.6416797911
 H        10.8775089955       -5.7264006877      -17.1257239260
 H        11.6889301954       -7.0069603154      -17.8738965249
 H        11.6562190920       -7.0947809429      -16.0011355236
 H         6.1423514958       -5.0361936022      -22.9847114983
 H         6.8167963071       -3.3784216751      -22.3828867020
 H         5.8922177738       -4.3499996696      -21.3328579126
 H         8.2595540120       -6.6432284236      -23.1096685766
 H         9.6739941973       -6.0410430353      -22.4114269067
 H         8.7329891376       -5.1233637190      -23.5384387297
 H        11.3231455120        0.2700807676      -20.1861480871
 H        12.8672308854       -0.3452213412      -20.3264443206
 H        12.5522713211        0.7421093313      -18.9051702941
 H        13.1155169903       -1.3609202740      -16.7749279432
 H        13.7736114362       -1.3000551143      -18.3038022481
 H        12.8264634701       -2.8306984839      -17.8249357145
 H         4.3992320552       -0.3538156254      -18.2488860370
 H         5.7950198999       -0.5664850564      -19.4236118724
 H         5.3653435813        0.9558535750      -19.0533477394
 H         6.5016134102        1.7063438259      -15.9431181757
 H         4.9079313481        1.0749047677      -16.2354187544
 H         5.5263844473        2.2666547326      -17.2817374025
 H         3.8731516628       -4.9295742524      -12.4739037390
 H         5.3618104943       -3.9686875793      -12.5367387062
 H         4.7255309991       -4.5911513940      -14.0561885185
 H         1.6923676936       -3.8622631888      -13.0938730974
 H         2.3251087535       -4.1870107528      -14.7194241006
 H         1.8073647552       -2.4369762135      -14.3624519936
 H         0.9076781803        3.7317024125      -10.6887695068
 H         1.4505880804        2.8434933445      -12.1506320293
 H         2.4003139247        2.7786301450      -10.5295248661
 H         1.9808791137        0.7192721208       -9.2970183668
 H         0.2892823383        0.4886570604       -8.6633590564
 H         0.9082847900        2.0230177067       -8.5868836252
 H        -5.1223184721        4.4397351616       -8.3111591447
 H        -3.9681780984        4.1262733268       -7.0279720248
 H        -5.7758981113        3.8661333363       -6.9643106569
 H        -4.3059901512        1.4940758253       -5.8948654596
 H        -2.8795876091        1.7014409151       -6.8134661423
 H        -4.0680288110        0.3393472944       -7.3829944462
 H        -9.4836491194        1.3979621484      -12.8268179977
 H       -10.1369605335       -0.1751435051      -13.1076846700
 H        -8.5779113244       -0.0276476445      -12.1558276270
 H       -12.2758675337        0.9105699893      -12.0992988125
 H       -11.3615000302        2.2446444028      -11.4771519789
 H       -12.4765939347        1.2460753511      -10.3546530401
 H       -10.8407426955       -4.6567888236       -8.1308041117
 H       -12.0358396712       -4.9947140007       -9.4178347376
 H       -11.7548433197       -6.1738690517       -8.1723885222
 H       -14.2188007319       -5.8926651310       -6.7585609355
 H       -14.4629291705       -5.3790821510       -8.5015644253
 H       -14.9987434241       -4.3173259058       -7.1836157139
 H       -14.1511187605        0.8813811819       -4.2602654589
 H       -14.8559865304       -0.5289908258       -4.9670337214
 H       -13.1572786754       -0.3697239798       -4.8065077607
 H       -12.6698106926        1.1353276262       -2.1889550601
 H       -11.6777460606        0.0034309795       -3.1525718833
 H       -12.1233372672       -0.3810779877       -1.3927336035
 H       -16.3526077405       -4.8801724452        0.6729793898
 H       -15.2481274671       -3.4874547325        0.8526741104
 H       -15.9252097723       -4.0442400164       -0.7188318951
 H       -18.9438097507       -4.4303237198        1.2515269197
 H       -18.5760496090       -4.5174939812       -0.5158705365
 H       -19.5456233377       -3.2917008401        0.1351871648
 H       -16.8872405145        0.1965204474        6.4513187988
 H       -18.4792987415        0.1684740014        6.1585268108
 H       -17.6600437657        1.6808817118        6.5824849734
 H       -18.7036356209        3.0499474515        5.1821728375
 H       -19.9615083014        1.8734547424        4.7634667376
 H       -19.2397963774        2.8317491863        3.5466496126
 Na      -16.1327732066        0.3305457445        1.0524692034
 Na        9.3906376339       -4.0506239828      -17.8798951025
