232

 C       -16.1918433907        3.4406810884        4.6995495416
 C       -16.6217014913        2.1423744863        4.0349230997
 O       -15.8427359850        1.7621242771        3.1638005310
 C       -17.8997283409        1.4037939420        4.5423349649
 C       -18.0984623421        0.1951918810        3.4767813075
 O       -18.1416413771        0.5129115532        2.3096461932
 C       -18.4505852969       -1.1766641124        4.0661683542
 C       -18.4680635421       -2.3658208557        3.0073226823
 C       -17.2991558776       -2.2276754512        2.0042227635
 O       -16.1912193400       -1.7858495577        2.3688519977
 C       -17.3772735592       -2.8947245590        0.5839691130
 C       -17.4345127626       -1.8269920189       -0.4816745222
 O       -17.8621957356       -0.7601016571       -0.1746010249
 C       -17.2797014812       -2.1384625692       -1.9649387281
 C       -16.4833435277       -1.0288075626       -2.6775446401
 C       -15.1151049246       -0.5816382948       -1.9973087324
 O       -15.0239828682       -0.1758595622       -0.8722544666
 C       -13.6777416977       -0.7084457619       -2.8880740917
 C       -13.4463503855       -2.2802656638       -2.8383351253
 O       -14.1253377333       -2.8705484971       -2.0084575116
 C       -12.5043900196       -2.9147412943       -3.8827777662
 C       -13.3368975248       -3.5028607309       -5.0963013073
 C       -12.5287411147       -4.2881078856       -6.0753031566
 O       -11.3344758668       -4.5017917920       -5.7666627715
 C       -12.9202567103       -4.4508679484       -7.5173194136
 C       -12.9661782260       -2.9576263217       -8.1081885370
 O       -14.0311340814       -2.4219313691       -8.1563587583
 C       -11.7541119978       -2.3619435860       -8.7859642577
 C       -11.7835140716       -0.8845536291       -9.2661648383
 C       -10.6625372900       -0.7533008195      -10.3100789336
 O       -10.1478518732       -1.7539914862      -10.7435182090
 C       -10.3769531787        0.6593350755      -10.9372926554
 C        -9.5479334751        1.4114714688       -9.7391151590
 O       -10.0984477956        1.9522097139       -8.8264594819
 C        -8.0732136023        1.3212149428       -9.7241321912
 C        -7.2941591935        2.2660213908       -8.7174729769
 C        -6.2328516102        1.4999951303       -8.0055647933
 O        -6.3200144275        0.3871648736       -7.5346894596
 C        -4.8118774682        2.2325362110       -7.8988547067
 C        -4.2651667601        2.2354781699       -9.3583329520
 O        -4.1763129542        3.3250600793       -9.9439686800
 C        -3.5728270804        0.9811940622      -10.0004206680
 C        -2.0258815965        1.0243274065       -9.7349522082
 C        -1.1053829148        1.8265556849      -10.7261310388
 O        -1.5254614324        2.5380728881      -11.5821111240
 C         0.4419927753        1.5571877934      -10.6511975442
 C         0.7917609795        0.2920811362      -11.5501577203
 O        -0.0594890257       -0.1335120952      -12.2496327845
 C         2.2535830923       -0.1405323476      -11.9265998259
 C         2.5890748609       -1.6404699700      -11.4717858845
 C         3.9128703475       -2.2759580113      -11.8974527413
 O         4.9506270157       -2.0956300817      -11.2821872159
 C         3.8715587559       -3.0389994963      -13.2537993426
 C         4.5693625968       -2.0655944331      -14.2409103001
 O         3.9160361487       -1.2326513223      -14.8131242110
 C         6.1214407909       -2.1979323644      -14.4335901090
 C         6.7855519097       -0.9687213507      -15.1127370682
 C         6.6721145871       -1.1216565379      -16.6741198297
 O         6.7775948950       -2.1725528523      -17.2243880546
 C         6.4579016064        0.1857036817      -17.4660931374
 C         7.8735761141        0.3933384589      -18.1011983991
 O         8.1996146758       -0.0532585644      -19.1961122351
 C         8.9650314814        0.9660680429      -17.2088201583
 C        10.3336378450        0.5155405746      -17.6601689585
 C        10.6418238231       -0.9537364165      -17.8414792805
 O        10.0328461800       -1.7652211120      -17.1517110498
 C        11.8096920624       -1.3740654203      -18.7464498227
 C        11.1697922582       -2.6046470328      -19.5333369194
 O        11.4025257710       -3.7480114601      -19.1963893483
 C        10.3548109611       -2.2188085067      -20.7461267525
 C         9.8657762232       -3.4089566859      -21.4505229207
 C         8.5726633113       -4.0472438329      -20.8390667816
 O         8.2458028222       -3.7182255692      -19.7563303190
 C         7.7435590778       -5.1591955861      -21.5826362965
 C         7.2168709789       -6.1566373054      -20.4673581996
 O         6.4373127218       -5.8664116343      -19.6097715759
 C         7.7543256342       -7.5748358501      -20.4432814960
 C         8.1100500337       -8.0672465017      -19.0330178572
 C         9.1559593754       -7.1088491008      -18.4429145905
 O         9.4696161830       -6.0697766832      -18.9284924282
 C         9.7569799905       -7.3347253877      -16.9242818213
 C         8.9336945792       -6.5211635067      -15.9081817148
 O         8.7492232816       -5.3334056364      -16.0487049824
 C         8.3556116157       -7.2245867650      -14.7371210494
 C         9.7739363717       -8.8981272424      -16.7054508268
 C        11.2608971081       -6.8914964559      -16.8890749792
 C         6.4569649154       -4.6294786250      -22.4255764863
 C         8.7651739178       -5.8622296669      -22.5651398210
 C        12.3572494604       -0.3899649474      -19.8039049603
 C        12.9629935781       -1.9116299222      -17.7099748560
 C         5.3052160400       -0.1066574383      -18.4763984621
 C         6.1949657567        1.4331052056      -16.6678657538
 C         4.6235007083       -4.4512867325      -13.1807339322
 C         2.4845163450       -3.1015767779      -13.9161858082
 C         1.2264092075        2.7233016463      -11.2649006091
 C         1.0105855151        1.3003892531       -9.1510998462
 C        -5.1134995354        3.6580606809       -7.3360351926
 C        -3.8348726524        1.5207814897       -6.9431581284
 C        -9.5711812505        0.4473742653      -12.2001503935
 C       -11.7462672419        1.3996712292      -11.2032670121
 C       -11.9146909035       -5.4358763060       -8.1915326037
 C       -14.3598224872       -5.1181439255       -7.6413574647
 C       -13.8548594703       -0.0834132565       -4.3210144004
 C       -12.6883752070        0.0573318374       -1.9762724476
 C       -16.1192961541       -3.8427452044        0.5109294079
 C       -18.7000524561       -3.7177802443        0.4363788259
 C       -17.6024571499        0.9899615464        5.9577114070
 C       -19.0542599066        2.3731480815        4.3171431477
 H       -15.7238921991        3.2044678809        5.6437560412
 H       -16.9809463552        4.2268843629        4.8061300692
 H       -15.4742545340        3.9740384104        4.1394586006
 H       -19.4265816832       -1.1971856940        4.5300892081
 H       -17.7185617336       -1.5231012068        4.8577365881
 H       -19.4056247098       -2.3823779047        2.4347819229
 H       -18.4179875068       -3.2769999143        3.4979706741
 H       -18.2895082648       -2.2717918887       -2.3976498201
 H       -16.7328664344       -3.0877261905       -2.1117562271
 H       -17.0237235849       -0.0836873539       -2.6271749530
 H       -16.2829590622       -1.2770147884       -3.7462313917
 H       -11.9878510712       -3.7747348562       -3.4006169625
 H       -11.7171773787       -2.1816566660       -4.1470923528
 H       -13.8485370134       -2.6718065573       -5.7095964151
 H       -14.1030981153       -4.0236307517       -4.5614548458
 H       -11.3940373605       -2.9509567347       -9.5893653380
 H       -10.9671391210       -2.4212709065       -7.9768653599
 H       -11.6861313176       -0.2798122262       -8.4044651012
 H       -12.7156673481       -0.5707338160       -9.7783038876
 H        -7.6180459340        1.5444071256      -10.6617694161
 H        -7.9426334955        0.2572879880       -9.3305213842
 H        -8.0571695112        2.7308402515       -8.0860081439
 H        -6.9264022261        3.0959902914       -9.4120302338
 H        -3.6842387596        1.1680064899      -11.1346176836
 H        -4.0693735959        0.0657833620       -9.8001900958
 H        -1.6716250994       -0.0318002349       -9.9550693686
 H        -1.7488446915        1.4164132133       -8.7511424757
 H         3.0396775388        0.3625498350      -11.4148597902
 H         2.4752728131        0.1903158267      -12.9045286670
 H         1.7347052174       -2.3088154618      -11.6055895884
 H         2.6307580274       -1.4582083686      -10.4199556695
 H         6.2578255644       -3.0877580774      -15.1669012728
 H         6.6383018135       -2.4863746069      -13.4773979975
 H         7.8657966926       -0.9919162097      -14.8884818312
 H         6.3436773748        0.0046741800      -14.9617623305
 H         8.8412192501        0.5998906200      -16.1607017807
 H         8.9759374679        2.0509144869      -17.1504115323
 H        11.1331951013        0.6348880994      -16.8402775532
 H        10.6656095355        0.9420438534      -18.6073286795
 H        10.9050199384       -1.5287220721      -21.4365051224
 H         9.5108205110       -1.6013904264      -20.2725466845
 H        10.6432373548       -4.1698559669      -21.6166158136
 H         9.5313631501       -3.1317213644      -22.4618242398
 H         8.5450054542       -7.7127867879      -21.2195481077
 H         7.0069939920       -8.3674043633      -20.7886327968
 H         8.3383251731       -9.1461858564      -18.9945793029
 H         7.2051996130       -7.9490802500      -18.4278311469
 H         8.8718419010       -6.9162385982      -13.8440057410
 H         8.5213890605       -8.2450975007      -14.7017233392
 H         7.3201495623       -7.0445987691      -14.6963022746
 H         8.7758698413       -9.3773701964      -16.8031572310
 H        10.0505141482       -8.9955844134      -15.6582604518
 H        10.4438818970       -9.3346832892      -17.4960052821
 H        11.3717274297       -5.9361257341      -17.3770054256
 H        11.8228376456       -7.5791841082      -17.5255372303
 H        11.5724477500       -6.9922543077      -15.8832525554
 H         6.0013025367       -5.4717618440      -22.8274933122
 H         6.7566110784       -3.9068465245      -23.2077748150
 H         5.8089504166       -3.9768293888      -21.7802550282
 H         8.2227059269       -6.6465423399      -23.1855744875
 H         9.6473928536       -6.2558859088      -22.0668566988
 H         9.2221213929       -5.3008126280      -23.3505021864
 H        11.6544152727        0.0718356395      -20.5187669036
 H        12.9453455844       -0.9288872109      -20.5433189956
 H        12.9791198313        0.3338078126      -19.3712684516
 H        12.4971586218       -2.4679075868      -16.9342288135
 H        13.2302682193       -0.9580877205      -17.1593700406
 H        13.6430938616       -2.6052554426      -18.0990953720
 H         4.6179336408       -0.4555505377      -17.7515560881
 H         5.5982165332       -0.9202528659      -19.2090870944
 H         4.9147722612        0.8145678632      -19.0588263786
 H         7.0567473532        1.5704650028      -15.9409924634
 H         5.2006749846        1.4590266767      -16.2028924747
 H         6.2475196923        2.2953195401      -17.2422429582
 H         4.0601303982       -4.8952013830      -12.3628121454
 H         5.5741201963       -4.3780542179      -12.7100353789
 H         4.7680592455       -4.9452168252      -14.1678983813
 H         1.9419688830       -3.9569995643      -13.6075481765
 H         2.6996311731       -3.1635584286      -14.9499680262
 H         1.9058928977       -2.1928747840      -13.8143497707
 H         0.6634567654        3.6420532264      -11.0805630541
 H         1.2151344500        2.5984792241      -12.3312774794
 H         2.2103711680        2.8740772916      -10.9055751633
 H         2.0767909505        1.1372598922       -9.1987334914
 H         0.6849635739        0.2677207358       -8.8682587548
 H         0.5633924709        2.0503641137       -8.4379225442
 H        -6.0317637479        4.1119120689       -7.7561697444
 H        -4.3072134331        4.3054996148       -7.4911730400
 H        -5.3923498990        3.6535782378       -6.2396092760
 H        -4.0051877620        2.0035332890       -5.9926684278
 H        -2.8250383562        1.8884819419       -7.1013177599
 H        -3.9443783852        0.4962083741       -6.9692571319
 H        -9.0839362880        1.3274609015      -12.5738076111
 H       -10.3166409704        0.0391897319      -12.8975699367
 H        -8.8636868206       -0.2945248921      -11.8698547776
 H       -12.5100781513        0.6618566653      -11.4808381369
 H       -11.7175900803        2.3101828811      -11.8443373468
 H       -11.9805705559        1.5582058693      -10.1795207814
 H       -10.8686158339       -5.2756940138       -7.9147128739
 H       -11.9433950620       -5.4412804021       -9.2629858643
 H       -12.2062124333       -6.4453790171       -7.8506084643
 H       -14.5532294967       -5.8727351120       -7.0029885549
 H       -14.6712933987       -5.3693696380       -8.6507636540
 H       -15.0078929962       -4.3550980508       -7.2432971919
 H       -14.2478831586        0.9363293706       -4.3726266076
 H       -14.5970590630       -0.7340932612       -4.8616801433
 H       -12.8540670058       -0.1786052206       -4.9171800745
 H       -13.0774402374        1.0714659870       -1.8233500986
 H       -11.8261138012        0.1376793240       -2.6425552681
 H       -12.5117432153       -0.4004967638       -1.0337623664
 H       -16.0443730547       -4.5347182876        1.3995726917
 H       -15.1724897944       -3.2988788095        0.4448793233
 H       -16.3013521263       -4.3970450196       -0.3699448324
 H       -18.6466738751       -4.6624130781        0.9307753901
 H       -18.8170198991       -3.9679360082       -0.5416000913
 H       -19.6376814839       -3.3313787240        0.8068135962
 H       -16.8517364823        0.1848412013        5.9360226609
 H       -18.3837006244        0.3303348043        6.5048063511
 H       -17.1933184135        1.7850094042        6.5575300598
 H       -18.9550260910        3.3634197920        4.8529939645
 H       -19.9849850500        1.8600382549        4.6339146979
 H       -19.3417447996        2.4472411437        3.3125068849
 Na      -16.0759173460        0.4945947933        1.1033574754
 Na        9.2928022033       -3.8584994370      -17.6625009776
