232

 C       -16.2514200105        3.7072960521        4.7847893995
 C       -16.5341213499        2.4440510994        3.9810944427
 O       -15.9089458125        2.1279528897        2.9600124098
 C       -17.8997124570        1.6626997448        4.5354434826
 C       -18.1998208049        0.3591361879        3.5600172482
 O       -18.3182461176        0.6203124745        2.3829960523
 C       -18.2893998336       -1.0122286938        4.1059712281
 C       -18.6627624599       -2.0099593882        2.9193778915
 C       -17.4353385430       -2.1509995442        2.0397910306
 O       -16.3895995070       -1.6410107809        2.3996818473
 C       -17.4713010938       -2.9166664730        0.7252749479
 C       -17.4528479192       -1.9066104453       -0.5704157848
 O       -17.8039152721       -0.7794908806       -0.3361632833
 C       -17.1359717975       -2.3418244297       -1.9904987728
 C       -16.4799067211       -1.1261477742       -2.6976391605
 C       -15.1748198174       -0.7374554196       -2.0022026476
 O       -15.2310117119       -0.2527941365       -0.8898530803
 C       -13.8516949954       -0.7724971552       -2.6847863253
 C       -13.4975678364       -2.3160059422       -2.9426895015
 O       -13.9349430868       -3.2050722305       -2.2567817740
 C       -12.5538569583       -2.7078275260       -4.1795005389
 C       -13.4182979188       -3.5708716891       -5.1593274717
 C       -12.4416489097       -4.2833455809       -6.1225382915
 O       -11.2544318967       -4.5893455454       -5.8954983189
 C       -13.0024852061       -4.6043415248       -7.5423452631
 C       -13.0029468035       -3.0699849125       -8.0611985628
 O       -13.9285188638       -2.3098635364       -7.8343175706
 C       -11.9145889113       -2.6405073106       -9.0495670637
 C       -11.9739571338       -1.1533123472       -9.3881939868
 C       -10.8549740345       -0.8393845228      -10.4296504697
 O       -10.1693390895       -1.7180510241      -10.8717010525
 C       -10.4944031129        0.8116119253      -10.7287069755
 C        -9.5926843721        1.2646040068       -9.3934215825
 O       -10.2167287786        1.6086133488       -8.4046731595
 C        -8.1287576265        0.9445285148       -9.4180473964
 C        -7.2864504558        2.0512906786       -8.7087497480
 C        -6.0793619529        1.4651622825       -7.9621422573
 O        -6.1029980358        0.2974858805       -7.6351269241
 C        -4.7982941438        2.3238027002       -7.7805368142
 C        -4.1569477805        2.4817744800       -9.1605460686
 O        -4.3454034269        3.4777843733       -9.8385570408
 C        -3.5549903087        1.1928055201       -9.9201230795
 C        -2.0060423511        0.8532054201       -9.8518868550
 C        -1.1982166104        1.7811269223      -10.7588227371
 O        -1.7441246988        2.6547975404      -11.4264991895
 C         0.3533935175        1.5256697670      -10.9478002576
 C         0.7143566236        0.2532734693      -11.8583814850
 O        -0.0009203089       -0.3523158362      -12.5565512941
 C         2.3064028437       -0.1612419582      -11.7969189275
 C         2.7275501708       -1.4919197454      -11.1625717205
 C         3.8967867699       -2.0475481004      -11.9784991018
 O         5.0209178161       -1.7577392562      -11.6248614211
 C         3.8439952353       -2.9365787816      -13.2872104096
 C         4.7201456547       -2.0791433049      -14.2886102952
 O         4.3621573834       -1.1864671025      -15.0296921117
 C         6.3422029422       -2.3245498230      -14.2858733961
 C         7.0352442451       -1.1079710800      -15.1218550021
 C         6.8515042361       -1.2332080370      -16.6070036969
 O         6.9843414905       -2.3219542646      -17.1755441360
 C         6.6789366821        0.0497184393      -17.5096933460
 C         8.1184162623        0.2800945546      -18.1972239157
 O         8.1710009686        0.0225898179      -19.3718219289
 C         9.2248229514        1.0739042369      -17.4125110349
 C        10.5801663552        0.7016241084      -18.1244826087
 C        10.9266299623       -0.8227969669      -17.9138435700
 O        10.3157656825       -1.5059770279      -17.1248917710
 C        11.9714603280       -1.5661881555      -18.7717595428
 C        11.2078513831       -2.7183340838      -19.6042419753
 O        11.0063379870       -3.7381542221      -18.9927342893
 C        10.5017057336       -2.3799796419      -20.9654407252
 C         9.8259955785       -3.5723311105      -21.6187441377
 C         8.5495276438       -4.1992646473      -20.9767883668
 O         8.0291459685       -3.7666808898      -20.0126828159
 C         7.8428120432       -5.3495917194      -21.7251618946
 C         7.1813794726       -6.2530385065      -20.6291509955
 O         6.2174376732       -5.8540613392      -20.0195768122
 C         7.7888917555       -7.6015963878      -20.3369746271
 C         7.9490379283       -7.9131252558      -18.8484221653
 C         9.0813164956       -7.0513807785      -18.2691634328
 O         9.5240180102       -6.0409982743      -18.7315159615
 C         9.7815504261       -7.3542200906      -16.8176904269
 C         8.9474014974       -6.4198735531      -15.8557855088
 O         9.0056221725       -5.2158615936      -15.9905296454
 C         8.2462122360       -7.0466319176      -14.6954130610
 C         9.7952371582       -8.8317145453      -16.3952888533
 C        11.2315716126       -6.7002467537      -16.7825489167
 C         6.5737762156       -4.6250014991      -22.3362210043
 C         8.6515330514       -6.1851689364      -22.7351315861
 C        12.8086802196       -0.5507809404      -19.6285116791
 C        12.9883425230       -2.5154888226      -17.8790829159
 C         5.5868737365       -0.1418739392      -18.6763917897
 C         6.3491746823        1.3017729450      -16.7349087961
 C         4.6347324165       -4.3307756435      -12.9188325222
 C         2.3842236525       -3.3745000890      -13.7092817626
 C         0.9871049198        2.8041588312      -11.5757725842
 C         0.9519381979        1.3112931989       -9.5501777589
 C        -5.0474904470        3.7313593272       -7.2166048585
 C        -3.8642572079        1.4387914356       -6.8774067753
 C        -9.7659544767        0.7744134768      -12.0674372965
 C       -11.7105845761        1.7947566709      -10.7610036796
 C       -12.1250802071       -5.5810067789       -8.3327866756
 C       -14.4957413781       -5.1441534383       -7.3071921486
 C       -13.8660714009        0.0583943378       -3.9949914318
 C       -12.6618374972       -0.2920194792       -1.8256400387
 C       -16.1446890513       -3.7599543403        0.5499618200
 C       -18.7038742133       -3.8273875789        0.5611389129
 C       -17.6856020516        1.2079046908        6.0150818376
 C       -19.1006337357        2.5360670000        4.3539644097
 H       -15.2086464533        3.7192313620        5.0761509848
 H       -16.9168857720        3.9241974794        5.6483522942
 H       -16.3962474645        4.6292493407        4.2349216330
 H       -18.9740439947       -1.1299506361        4.9116494863
 H       -17.2875384956       -1.2325812368        4.5329406334
 H       -19.4734722977       -1.5149531126        2.2700062425
 H       -19.0405575317       -3.0165885374        3.1807439087
 H       -18.0853843469       -2.6505039982       -2.5082804664
 H       -16.5600151659       -3.2658948180       -2.0518352893
 H       -17.1236651444       -0.2711146849       -2.7097596343
 H       -16.2450274632       -1.3975419076       -3.7544308485
 H       -11.7089154062       -3.3353169030       -3.8525893388
 H       -12.1802494673       -1.8130545252       -4.6835380963
 H       -14.1013879325       -2.9260079852       -5.7095157505
 H       -13.9528320383       -4.3001648384       -4.6592934053
 H       -11.9339903657       -3.3201252818       -9.9491453140
 H       -10.9015496796       -2.7448386181       -8.6382000102
 H       -11.7530795290       -0.5335862620       -8.4698539322
 H       -12.9374960975       -0.8353950414       -9.7382799253
 H        -7.8758757743        0.8570728722      -10.4335506211
 H        -7.8070884530        0.1233187750       -8.7739246556
 H        -7.9410612090        2.4870348104       -7.9824054349
 H        -7.1009737229        2.8614518256       -9.3597483206
 H        -3.7717720714        1.3919829526      -10.9860533314
 H        -4.1048736446        0.3072923499       -9.6723972361
 H        -1.9832944240       -0.1131515551      -10.2772444813
 H        -1.5295974643        0.9727984485       -8.8960786962
 H         2.9822570930        0.5747486402      -11.2963396041
 H         2.7838837000       -0.0837496963      -12.8338456491
 H         1.8224968572       -2.1146287034      -11.1481554244
 H         2.9537214152       -1.4900054646      -10.0584119158
 H         6.3862219140       -3.3229828933      -14.7098602186
 H         6.7731169349       -2.3604030928      -13.3165783745
 H         8.1177560345       -1.1621661304      -15.0507572404
 H         6.7245513863       -0.1235956929      -14.7939293377
 H         9.1792463387        0.7937124198      -16.3323328711
 H         9.0647239484        2.1437509378      -17.3366015993
 H        11.4210953992        1.3002458194      -17.7959672556
 H        10.5386791297        0.8078805507      -19.1879242922
 H        11.2269062334       -1.9506793354      -21.6483224460
 H         9.7443413075       -1.6685863032      -20.7000450185
 H        10.4827388185       -4.3684083657      -21.8547002230
 H         9.4107381446       -3.3117565583      -22.5833727242
 H         8.7273886260       -7.8059568430      -20.8256391014
 H         7.2485004687       -8.3684443003      -20.8144103510
 H         8.0317602636       -9.0100007490      -18.7238087950
 H         7.1389741216       -7.5996939201      -18.1990374235
 H         8.9282756766       -7.6716139496      -14.0083399190
 H         7.6104640910       -7.9187114850      -15.0297928588
 H         7.5998585155       -6.2465518459      -14.2695103856
 H         8.7646669258       -9.1118031941      -16.2046630246
 H        10.2840326938       -8.9411661497      -15.4120787521
 H        10.4600881964       -9.3669349976      -17.1274880152
 H        11.2745620465       -5.6085543745      -17.0367747896
 H        11.7243231932       -7.3390625154      -17.5765294320
 H        11.6439486376       -6.9412439712      -15.8101452201
 H         5.9801919138       -5.3246792600      -22.8728485468
 H         6.9820177075       -3.9519528723      -23.0901066410
 H         6.1163223047       -3.9636758851      -21.5682517851
 H         7.9725036396       -6.9783725681      -23.0692642612
 H         9.5850666370       -6.5976038916      -22.3626288657
 H         8.9688559195       -5.7026989476      -23.6187820830
 H        12.2838925055       -0.0685587606      -20.5331409765
 H        13.7592059346       -0.9718758640      -19.9744030764
 H        13.1542753112        0.2449329640      -18.9456831160
 H        13.2918613914       -3.3895655958      -18.4740358504
 H        12.4167973654       -2.7863792540      -16.9346603772
 H        13.9429042950       -2.0249551405      -17.6134782320
 H         4.6169329787        0.0897946945      -18.3686916359
 H         5.7366876101       -1.1362472377      -18.9985617509
 H         5.8431919411        0.5868144479      -19.4887636567
 H         7.0916905918        1.6770008054      -15.9984321122
 H         5.4232921973        1.1256779886      -16.2001646083
 H         6.2100081543        2.1423828855      -17.3691621171
 H         4.0226857788       -4.9117127656      -12.2772963058
 H         5.5429322408       -4.1341528004      -12.3657692844
 H         4.9839396876       -4.8199641083      -13.8425418320
 H         1.7085444602       -3.4302298182      -12.8247158946
 H         2.5156085667       -4.3813401936      -14.2368991733
 H         1.8658484875       -2.7686381395      -14.4722896646
 H         1.3534334087        3.4854869132      -10.7431219922
 H         0.3764901749        3.4004956331      -12.2725301046
 H         1.9269813242        2.5606765081      -12.1252017698
 H         2.0537515497        1.2038837006       -9.6197196356
 H         0.6881335350        0.3601236758       -9.2116923564
 H         0.7531418549        2.1572982689       -8.9464872991
 H        -6.0483971180        4.1466258863       -7.5053383208
 H        -4.2524742579        4.4214705277       -7.4332886384
 H        -4.9776698392        3.6197351228       -6.1246405306
 H        -4.4362279139        0.7970836044       -6.1309865699
 H        -3.1259704483        2.1313073295       -6.3069165833
 H        -3.2420688239        0.8292945510       -7.5205274206
 H        -9.2536409752        1.7264352715      -12.1119377027
 H       -10.5743631744        0.6575942766      -12.8431232548
 H        -9.0769774457       -0.0253516363      -12.0771252183
 H       -12.5841511186        1.2604005268      -11.1022975031
 H       -11.4156294291        2.6856831559      -11.4030305001
 H       -11.7985240977        2.2017960710       -9.7716863839
 H       -11.1454764001       -5.3051550893       -8.6242683089
 H       -12.6220028669       -5.8546328480       -9.2625115443
 H       -12.0579863170       -6.5188416375       -7.7022317393
 H       -14.4847881258       -6.0908329606       -6.7742650263
 H       -15.0315957921       -5.3292481596       -8.2865398367
 H       -15.1876158329       -4.5861474526       -6.5989525588
 H       -14.2953395280        1.0136153337       -3.8073096825
 H       -14.4809316833       -0.4293935225       -4.6565629862
 H       -12.9101175645        0.2126765415       -4.4654196549
 H       -12.6204207308        0.8489725026       -1.8074902397
 H       -11.7651053595       -0.6758258604       -2.2565264768
 H       -12.8883345377       -0.5787629187       -0.8172007891
 H       -16.0512707364       -4.2970754988        1.4671568516
 H       -15.2408220935       -3.1487861341        0.5178253600
 H       -16.1790700382       -4.3509534305       -0.3671263108
 H       -18.8639103362       -4.4647201017        1.4923050160
 H       -18.5460287344       -4.5716842702       -0.1748844521
 H       -19.7134518155       -3.3847707147        0.5214320454
 H       -16.7565092950        0.6951540173        6.0190263150
 H       -18.4279133827        0.5225452580        6.4482167844
 H       -17.7277750089        1.9917303509        6.7612950095
 H       -19.1004737364        3.3827434643        5.0402853597
 H       -20.0529700602        2.0779905357        4.5035802133
 H       -19.1445878392        2.8491133656        3.3356624049
 Na      -16.1647231699        0.3498083893        1.3796135517
 Na        8.8726209349       -3.5733887789      -17.7450444421
