232

 C       -16.1715693389        3.7261497029        4.6755212800
 C       -16.6484873266        2.5199012602        3.8994772795
 O       -16.1726313614        2.2188560687        2.8374359140
 C       -17.9336791263        1.7730682371        4.5201144085
 C       -18.2720324410        0.6297327937        3.5615175702
 O       -18.4330266573        0.8637532474        2.3672459597
 C       -18.3972667689       -0.8712155084        4.0499764199
 C       -18.6376405953       -1.8748580143        2.9523008971
 C       -17.4030966482       -2.1099987580        1.9845955577
 O       -16.2947020704       -1.6746365380        2.3133485243
 C       -17.4558835254       -2.9872983709        0.6866479394
 C       -17.5120183224       -1.9728446484       -0.4529184479
 O       -18.0350148062       -0.8787536357       -0.2523536040
 C       -17.1555473099       -2.3618590054       -1.8386660245
 C       -16.3510925357       -1.2793683351       -2.5274978380
 C       -15.0544981440       -0.7022457347       -1.7810227310
 O       -15.1005968636       -0.0556582339       -0.7302742763
 C       -13.7886679613       -0.7387286738       -2.5354340789
 C       -13.4360448276       -2.3723350869       -2.9048634487
 O       -14.1387229235       -3.1745000812       -2.3375106136
 C       -12.6009894558       -2.6692636158       -4.1645185662
 C       -13.2088857477       -3.7774540669       -5.0344121850
 C       -12.3570223764       -4.3591360266       -6.1727408278
 O       -11.2417544911       -4.6450247023       -5.9887821574
 C       -13.0741534439       -4.5571749850       -7.6283201578
 C       -13.1336469985       -3.0639398363       -8.2067213265
 O       -13.9534310561       -2.2625964957       -7.7440434652
 C       -12.2065414897       -2.7668796221       -9.2867698531
 C       -12.0664350879       -1.2474874723       -9.5460478630
 C       -10.8333017771       -0.8117821349      -10.4026047029
 O       -10.1902287340       -1.5957039945      -11.0759937994
 C       -10.5350234497        0.7741737274      -10.4929497699
 C        -9.5998350995        1.0918035696       -9.3093832167
 O       -10.1364734718        1.4599797911       -8.2620597135
 C        -8.0344563335        0.8248405566       -9.3266591804
 C        -7.2539982759        1.9002064108       -8.4815293646
 C        -5.9820804102        1.3162101928       -7.9376033261
 O        -5.8597405780        0.1189550233       -7.7183784483
 C        -4.7441033617        2.2143575432       -7.8121111966
 C        -4.1791755848        2.3869415039       -9.2822508830
 O        -4.1622388354        3.5042932268       -9.7176532317
 C        -3.6147639804        1.1496545528       -9.9401134850
 C        -2.1020070902        0.9012473549       -9.9057053433
 C        -1.2848493297        1.7051184112      -10.9061357854
 O        -1.7189641509        2.6721723066      -11.5462316706
 C         0.3572618101        1.5017572422      -10.9646077763
 C         0.8199599466        0.2439260814      -11.8557409209
 O        -0.0225961545       -0.5231131061      -12.3286344978
 C         2.2895569716        0.1109155543      -12.2080437057
 C         2.6608661438       -1.2934594047      -11.6494944664
 C         4.0213119564       -1.8012713548      -11.9979951605
 O         5.0434422435       -1.4909236187      -11.3936928814
 C         4.0005108310       -2.8735531096      -13.1588514511
 C         4.7896337998       -2.0388537689      -14.3168315189
 O         4.1597601572       -1.4199326498      -15.1407466987
 C         6.3004732128       -2.2329606160      -14.3494964811
 C         7.0807823020       -1.2288558177      -15.0577966109
 C         7.1052660740       -1.2851194294      -16.6218262979
 O         7.1119893658       -2.3316241613      -17.1914388312
 C         6.9320235726        0.0402366251      -17.5746560746
 C         8.2146934323        0.3784908680      -18.3639126439
 O         8.3198674057       -0.1173447976      -19.4704159264
 C         9.4788011404        1.0481540730      -17.6460879218
 C        10.8029812118        0.6267443180      -18.2082825180
 C        10.8761136690       -0.9484422069      -17.9850091489
 O        10.3311629349       -1.5595183826      -17.0861300880
 C        12.0263352021       -1.7712338519      -18.8137295491
 C        11.1042082194       -2.7403700180      -19.6574240776
 O        10.8052786770       -3.8114566010      -19.2020697166
 C        10.4710962527       -2.3989343869      -21.0227941859
 C         9.9585292936       -3.7384295020      -21.6851560995
 C         8.6464707800       -4.2344483034      -20.9830464561
 O         8.2256377506       -3.5295090237      -20.0282441061
 C         7.7464413764       -5.2913440216      -21.7471746407
 C         7.1643487699       -6.3426175155      -20.5746477628
 O         6.0949291073       -6.0932769366      -20.0470466114
 C         7.8540537380       -7.6733970626      -20.1878931915
 C         7.9315860180       -7.9110494329      -18.6888792874
 C         9.1045143402       -6.9931501769      -18.1150894687
 O         9.2986804824       -5.9866439158      -18.8063055089
 C         9.7174808457       -7.2253537873      -16.7596137255
 C         8.9250423188       -6.2900166854      -15.6666080131
 O         8.8762707729       -5.0805061813      -15.8268758141
 C         8.0845826574       -6.8481956156      -14.5179206745
 C         9.8184369268       -8.6804918279      -16.3322981845
 C        11.2284567607       -6.7006050408      -16.8619640637
 C         6.6591983203       -4.5835037854      -22.6375943469
 C         8.6120457582       -6.0734776985      -22.7751444747
 C        12.8408253832       -0.8849157049      -19.7972297331
 C        12.9891588206       -2.4048810791      -17.7534160894
 C         5.8329239667       -0.4386745658      -18.5190692745
 C         6.3388141012        1.1508452262      -16.6275444696
 C         4.6431513705       -4.1708711894      -12.6693767455
 C         2.6137333433       -3.0601892986      -13.9212730292
 C         0.8998510184        2.6958505307      -11.7742207678
 C         0.8829060403        1.3383840109       -9.5980038112
 C        -5.1025061406        3.5484696790       -7.0838513197
 C        -3.7231495171        1.6385935901       -6.8048568522
 C        -9.9138528710        1.1263042533      -11.8741637766
 C       -11.9208085249        1.4605714075      -10.3330224484
 C       -12.2180711449       -5.5513074127       -8.4896120508
 C       -14.5295624901       -5.0853563614       -7.4322449787
 C       -13.9503684181        0.0919503961       -3.7852654718
 C       -12.5594402488       -0.3535085721       -1.7165403677
 C       -16.2637973042       -3.8822197324        0.7841923100
 C       -18.6407104163       -3.8688902864        0.6548722840
 C       -17.7060442862        1.2117512468        5.9866582875
 C       -19.1044763311        2.8057222289        4.4741133892
 H       -15.1177296220        4.0090277075        4.5340386292
 H       -16.4471462092        3.6559786133        5.6929310979
 H       -16.7546703547        4.6389014511        4.4340220451
 H       -19.3616537072       -0.8754249095        4.6626433037
 H       -17.7016038480       -1.3639103757        4.7105871543
 H       -19.4542983838       -1.5689011468        2.3851087761
 H       -18.8639865957       -2.8616152553        3.3664290149
 H       -17.9647769231       -2.6856733199       -2.4817339136
 H       -16.5876132331       -3.3095399387       -1.7608293464
 H       -17.0056664529       -0.3631626177       -2.6434796005
 H       -16.0762426663       -1.6058295374       -3.5105743163
 H       -11.7047130922       -3.1439936743       -3.7419432306
 H       -12.3364335570       -1.7203980551       -4.6510174165
 H       -14.1770945835       -3.4359809775       -5.3721103893
 H       -13.3556229300       -4.7467830234       -4.3822032022
 H       -12.3744419723       -3.4321475367      -10.1099988228
 H       -11.1972697297       -2.9929153836       -8.9158492184
 H       -11.8400554029       -0.7268935513       -8.6428022399
 H       -13.0402369505       -0.9060851783       -9.9421199312
 H        -7.4712274211        0.7135262740      -10.3241233564
 H        -7.8125129021       -0.1372732919       -8.7769174141
 H        -7.8429201596        2.4692231710       -7.7286367576
 H        -7.1263132513        2.6830319724       -9.2622343370
 H        -4.0426733332        1.2261017118      -10.9187554608
 H        -4.0712840992        0.2278749360       -9.4793558388
 H        -1.9020955030       -0.2034799245      -10.0252332067
 H        -1.7228934763        1.2716970534       -8.8928196418
 H         2.9528371107        0.8065973628      -11.6540526209
 H         2.5286959662        0.1488381863      -13.2338378366
 H         1.8517779340       -1.9920347226      -11.8219779177
 H         2.6140934257       -1.3153397547      -10.5890170752
 H         6.5020026217       -3.2766607080      -14.7030917948
 H         6.5702217032       -2.2447900901      -13.2272760337
 H         8.1366155728       -1.3439912291      -14.7510445599
 H         6.8214476665       -0.1900447194      -14.8164143128
 H         9.3698298419        1.0048723785      -16.5828333930
 H         9.4298768382        2.1505437193      -17.7067908383
 H        11.7153856070        1.1478976093      -17.8127749356
 H        10.8291293074        0.8083764210      -19.3323289417
 H        11.2897746977       -2.0302855291      -21.7083468839
 H         9.6225660186       -1.6451828170      -20.8695169228
 H        10.6336222676       -4.6045238437      -21.4970356609
 H         9.8222780306       -3.7422334449      -22.7697406666
 H         8.8883046197       -7.7164441182      -20.5980087845
 H         7.4360573580       -8.4801936293      -20.8771702599
 H         8.2375148393       -8.9385142786      -18.5544500811
 H         6.9578997049       -7.7533020457      -18.1666354612
 H         8.4845598209       -7.6815618249      -14.0808667334
 H         7.1014549142       -7.2011397474      -14.7622668033
 H         7.9923009542       -6.0344022452      -13.8722828140
 H         8.8951045438       -9.1046189277      -16.7112889011
 H         9.8636318149       -8.9353085113      -15.2808459232
 H        10.7909807057       -8.9608777119      -16.6390774266
 H        11.1271606065       -5.6303255367      -17.0395757812
 H        11.6356501763       -7.2196907396      -17.7121081404
 H        11.7904190652       -6.8686641948      -15.9008175823
 H         6.4965524992       -5.2466787159      -23.5480501727
 H         6.9466673623       -3.5986330110      -23.0536223300
 H         5.7931089372       -4.5051395176      -22.0140752861
 H         8.1482905458       -6.9697719111      -23.1426924656
 H         9.5920489741       -6.3914608829      -22.3702776849
 H         8.7871353710       -5.3834059550      -23.6611878494
 H        12.1839474941       -0.3999477053      -20.4952385486
 H        13.5168672049       -1.5569705519      -20.3485002805
 H        13.5732922265       -0.1495976039      -19.3696304645
 H        14.0030026159       -2.3162913694      -18.2769240770
 H        12.7474813834       -3.3951676006      -17.5270403954
 H        12.9489927958       -1.8472009860      -16.7513088868
 H         4.8689096638       -0.6138127147      -17.8831902263
 H         6.2325217748       -1.3332183069      -19.0421325897
 H         5.5392920429        0.4018485861      -19.1236082730
 H         6.9952611685        1.5686630994      -15.9153735064
 H         5.4459438442        0.9113831951      -16.0502571345
 H         6.1637162231        2.0276242901      -17.3301189775
 H         3.9361929506       -4.6035052937      -11.9001359354
 H         5.6613807660       -3.9457676010      -12.2488499672
 H         4.7695355243       -4.9116295192      -13.4717816815
 H         1.8476950286       -3.5871589255      -13.3498318438
 H         2.7807961637       -3.5865802797      -14.8279650505
 H         2.1997067857       -2.1012199096      -14.2133636076
 H         1.3497450345        3.4586805427      -11.1693046785
 H         0.1116863300        3.1891000920      -12.3837948459
 H         1.6425861390        2.4212288852      -12.5511449890
 H         1.9622440998        1.2631635164       -9.6787867465
 H         0.4981126020        0.4186535767       -9.0791068137
 H         0.8611933754        2.3253714363       -9.1059491243
 H        -5.3456419731        4.2294467960       -7.8588147237
 H        -4.1903809545        3.9513384197       -6.6002897370
 H        -5.8305986954        3.4918546093       -6.3112823601
 H        -4.2606655518        1.6643185649       -5.8835984927
 H        -2.8074541639        2.1652931876       -6.8092157437
 H        -3.4769770601        0.5381181452       -6.9776732860
 H        -9.3355233339        2.0326788348      -11.7862516335
 H       -10.6999720016        1.1267564935      -12.5446435940
 H        -9.2775336339        0.2501327510      -12.0779146287
 H       -12.3887897121        1.4042602809      -11.3331950862
 H       -11.6716200127        2.4546119208      -10.0626941969
 H       -12.5105881227        1.1458598277       -9.4330561507
 H       -11.1589287531       -5.2799590667       -8.6232962003
 H       -12.5853442199       -5.5980562656       -9.5225626822
 H       -12.2443519162       -6.5111447271       -8.0694752169
 H       -14.5900252800       -5.8311506017       -6.6110341180
 H       -14.7029337367       -5.6316143555       -8.3009172747
 H       -15.3545765136       -4.4675565439       -7.2830352071
 H       -14.3236396325        1.1601453674       -3.5414225903
 H       -14.6523029623       -0.4026323108       -4.5235545711
 H       -13.0057710494        0.3030223302       -4.3145841838
 H       -12.6009944685        0.5571427911       -1.1923376429
 H       -11.6813461613       -0.3828092193       -2.3933983802
 H       -12.5229905425       -1.1786869635       -0.9693048661
 H       -16.4703729291       -4.6497183900        1.4989916004
 H       -15.4191031807       -3.3389563142        1.1377321082
 H       -15.9592846573       -4.1722575360       -0.2301464832
 H       -18.6587852791       -4.5776146919        1.3966096788
 H       -18.8569740871       -4.4020998900       -0.2750446008
 H       -19.4629484500       -3.2685675711        0.8543588740
 H       -16.6982912188        0.7109995456        6.0581634523
 H       -18.5147180079        0.7285053864        6.4660733405
 H       -17.7549014520        2.1083667373        6.6542653954
 H       -18.8403381743        3.7149404485        4.9957601849
 H       -20.0490626929        2.5585286199        4.9922433797
 H       -19.2814437609        3.0824876827        3.3789376695
 Na      -16.2950256977        0.3935777074        1.2412454266
 Na        8.8322384633       -3.6456006847      -17.8779591350
