232

 C       -15.9799642002        3.7236711948        4.5893535762
 C       -16.7534148700        2.5749965882        3.8294963637
 O       -16.2416367083        2.1889647635        2.7776479825
 C       -18.0126833027        1.8647468168        4.4083880305
 C       -18.3410726846        0.6760916081        3.4056010054
 O       -18.6289732576        0.9736466509        2.2555863695
 C       -18.5618009867       -0.6788002265        4.0234375551
 C       -18.6238071918       -1.7651533623        2.9395096453
 C       -17.3539883948       -2.1796081354        2.2492977969
 O       -16.3678910657       -1.5174093937        2.4372822952
 C       -17.5014049216       -3.0722488327        0.8773047929
 C       -17.5403261877       -2.0243451642       -0.2021943957
 O       -18.0948837762       -0.9640332006        0.0060123852
 C       -16.8651929451       -2.3223916794       -1.5812666668
 C       -16.3548394115       -1.0963753668       -2.3551281466
 C       -15.0789997670       -0.6126654467       -1.6947805216
 O       -14.9999213839       -0.1559096343       -0.5771230323
 C       -13.7022862007       -0.8027546611       -2.4799066756
 C       -13.5096472763       -2.3166503489       -2.9498753221
 O       -14.2269414018       -3.2106153122       -2.4952489524
 C       -12.6314182477       -2.8012435104       -4.1945064682
 C       -13.2686513612       -4.0421751494       -5.0142716211
 C       -12.4009095181       -4.4243958929       -6.2485718430
 O       -11.1618980018       -4.5717670265       -6.0774668931
 C       -13.1155397966       -4.6164753388       -7.6316865487
 C       -13.1826515257       -3.1615512282       -8.2697450443
 O       -13.8333254891       -2.2961294830       -7.7736602306
 C       -12.2594869567       -2.8074833951       -9.5076412107
 C       -12.1611202624       -1.2793859069       -9.6631688122
 C       -10.9367441380       -0.7936342350      -10.4398335978
 O       -10.2145002074       -1.5124309967      -11.0892938878
 C       -10.5940696883        0.7521504231      -10.2457780456
 C        -9.6434866398        0.9442966647       -9.0786740656
 O       -10.0523561872        1.3466033623       -8.0223835974
 C        -8.1081134114        0.7217348771       -9.3435745494
 C        -7.2635428776        1.5599217417       -8.3595254136
 C        -5.8768159087        1.0854613664       -7.9671546171
 O        -5.6426414489       -0.0851632459       -7.7688200791
 C        -4.6668287395        2.1025470828       -7.7928927080
 C        -3.9619348915        2.3789854904       -9.1834906601
 O        -3.9570139300        3.5075858303       -9.6442554540
 C        -3.4811855904        1.1538403844       -9.9311113757
 C        -1.9773299129        0.9561192667       -9.9184090608
 C        -1.3563001556        1.8189459625      -11.0975759267
 O        -2.0076108045        2.4824493021      -11.7919732423
 C         0.2323979279        1.7553192154      -11.1625033759
 C         0.5735967181        0.3387041274      -11.8836423239
 O        -0.2630526564       -0.5542348782      -11.9627642677
 C         1.9675538678        0.0127908796      -12.3813609520
 C         2.6230577024       -1.0758332550      -11.5072563880
 C         3.9083174840       -1.7025431445      -12.0875887866
 O         4.9378197557       -1.4207354801      -11.5049358722
 C         4.0044732712       -2.7323480532      -13.3306546504
 C         5.0393851249       -2.0511117051      -14.4563765739
 O         4.6158865513       -1.4242049522      -15.3610864567
 C         6.5972227073       -2.2984379207      -14.3304231548
 C         7.3545391989       -1.1610338860      -14.9902980177
 C         7.2318223202       -1.2966528062      -16.5961819293
 O         7.3910556463       -2.4608588726      -16.9687678783
 C         6.9426016923       -0.0885637216      -17.5751833860
 C         8.3262618296        0.1142356931      -18.3234946902
 O         8.4528874602       -0.2272479466      -19.4951077550
 C         9.4184923789        1.0216578916      -17.6580244539
 C        10.7517515686        0.5222982622      -18.1650376585
 C        10.8572621659       -1.0192059841      -18.1480860603
 O        10.0629678411       -1.6120117300      -17.3926256710
 C        12.0004540649       -1.7789612748      -18.9391831501
 C        11.1652567926       -2.9233412786      -19.6284474787
 O        11.1739730440       -4.0460371661      -19.0984421497
 C        10.6375973423       -2.5784528226      -21.0172240546
 C         9.9449281409       -3.7407766292      -21.6773377890
 C         8.6005812464       -4.1880187766      -21.0715357947
 O         8.0419072760       -3.5485617696      -20.2251302648
 C         7.8221289990       -5.3828962276      -21.7437709348
 C         7.2221073042       -6.3162097684      -20.6974330302
 O         6.1656533024       -6.0447756005      -20.1945021375
 C         7.8812113018       -7.6627402901      -20.2646502600
 C         8.0717580253       -8.0029433034      -18.7866731661
 C         8.9097944699       -6.8504118087      -18.1303834739
 O         9.0516152967       -5.7784301224      -18.6776215461
 C         9.5492887938       -7.0233028358      -16.6374331291
 C         8.8286964900       -6.1584217125      -15.6611026826
 O         8.7699400060       -4.9520964766      -15.8425522124
 C         8.1350171729       -6.7430499476      -14.4598363884
 C         9.5929974912       -8.5408352852      -16.2471696968
 C        10.9746488942       -6.5028350806      -16.7553668809
 C         6.5384435660       -4.6877664036      -22.3801550866
 C         8.7707524297       -6.1958381034      -22.7010399477
 C        12.8091655294       -0.9607501622      -19.9624115330
 C        12.8977936662       -2.5426968998      -17.9265947084
 C         5.8194375877       -0.4874819184      -18.5587040143
 C         6.6308528276        1.2528115101      -16.9343077101
 C         4.7667746006       -3.8967222174      -12.6960858112
 C         2.6230352214       -3.1306494413      -13.8236502386
 C         0.8475810291        3.0207260969      -11.7176837419
 C         0.9899373451        1.4649546416       -9.7341994763
 C        -5.2958744096        3.4508841995       -7.3579597744
 C        -3.5803733540        1.4908797467       -6.8315790574
 C        -9.9700217397        1.3490422254      -11.5437864244
 C       -11.9632294436        1.6370263798      -10.0304374698
 C       -12.3056083246       -5.5549848399       -8.3933714097
 C       -14.5591455218       -5.0517509692       -7.5188435293
 C       -13.6982538326        0.2074293760       -3.7500828535
 C       -12.4468343199       -0.4348362266       -1.5890421959
 C       -16.2476666538       -4.1015936721        0.7262855968
 C       -18.7775079071       -3.8489174938        0.8825186877
 C       -17.5851334735        1.4637682077        5.8434483751
 C       -19.2558958571        2.9212462317        4.5653855451
 H       -15.2301982272        4.1864475437        3.9608799485
 H       -15.4915851573        3.3707826673        5.5448217949
 H       -16.5525301447        4.5529212472        4.9340993700
 H       -19.4508329064       -0.6553895434        4.5972262203
 H       -17.8149960948       -1.0019626213        4.7762163894
 H       -19.1926825782       -1.2760920327        2.0675343119
 H       -19.1318438998       -2.6764640717        3.2295133347
 H       -17.6801608201       -2.7148949763       -2.1930231956
 H       -16.2002626346       -3.1574422877       -1.6316323822
 H       -17.0804603915       -0.3264003995       -2.3916504463
 H       -16.0865771589       -1.3812246338       -3.3946936992
 H       -11.6167747814       -3.1254691509       -3.9518417170
 H       -12.5949176205       -1.9395384563       -4.8535274768
 H       -14.3367747416       -3.7675048630       -5.2423807169
 H       -13.2317142594       -4.9652408666       -4.5371948377
 H       -12.5680132247       -3.3093867886      -10.4481006549
 H       -11.2156849620       -3.1169292890       -9.4337160621
 H       -12.0125639696       -0.7137789505       -8.7032366388
 H       -13.1061930561       -0.9573567295      -10.0917621631
 H        -7.9094237919        1.0754950425      -10.3417525595
 H        -7.9163500767       -0.3770717113       -9.4192880983
 H        -7.8811285729        1.7050284012       -7.4413283381
 H        -7.4179841385        2.5326674023       -8.8363628175
 H        -3.9292846401        1.3025907823      -10.9743712200
 H        -3.9314231329        0.2799545108       -9.5252747321
 H        -1.7983502538       -0.0133276959      -10.3841156450
 H        -1.6040578556        0.9155719656       -8.9018833277
 H         2.6801284217        0.8274982064      -12.3112517432
 H         1.7921766174       -0.4174166898      -13.4302953625
 H         1.9381442701       -1.8271761378      -11.0799804033
 H         2.9575562146       -0.5330265817      -10.5911910574
 H         6.9005351046       -3.2182747544      -14.8028438215
 H         6.8054322861       -2.4129135275      -13.3176148615
 H         8.4190007219       -1.1820354585      -14.6968254847
 H         7.0253464020       -0.1580099206      -14.7143534191
 H         9.3892205734        0.9189390610      -16.5413315131
 H         9.2347170090        2.0873650615      -17.6848590055
 H        11.5638076762        0.8116672394      -17.4929809135
 H        11.0745317307        0.9376353082      -19.0994984331
 H        11.4523733708       -2.4938393404      -21.7066921813
 H        10.0441181338       -1.6774486847      -20.9211629578
 H        10.5959855279       -4.5704614529      -21.9575579053
 H         9.5701091747       -3.3554261945      -22.6612927739
 H         8.7726126173       -7.7846081272      -20.8484589846
 H         7.2247973284       -8.3315914201      -20.7630906481
 H         8.5203755584       -8.9938742454      -18.5483183631
 H         7.0414547595       -7.9560487750      -18.4448871029
 H         8.6597578284       -7.6965666354      -14.1099226793
 H         7.1871517659       -7.1250553181      -14.8223551921
 H         7.9204187166       -6.0320396156      -13.5827922370
 H         8.6694770187       -8.6747624915      -15.7828713447
 H        10.4525093041       -8.7743121960      -15.6482965796
 H         9.8910171434       -9.1935707280      -17.0736921869
 H        10.8357583519       -5.4807079449      -16.9825476723
 H        11.4774475827       -7.1122116174      -17.4655091734
 H        11.4387527383       -6.5091383365      -15.8234276063
 H         5.9467471442       -5.3585343025      -22.9246275728
 H         6.8890780182       -3.9455071722      -23.0947370196
 H         5.9608351600       -4.3490531316      -21.4780166050
 H         8.2297859229       -7.1053220300      -23.1281767505
 H         9.5873319834       -6.6794290113      -22.1269504645
 H         9.1432264767       -5.5972522449      -23.5193889961
 H        12.1959861407       -0.2966843735      -20.5248240391
 H        13.4758368254       -1.5747663607      -20.5463245399
 H        13.4297645731       -0.3496467893      -19.4350633231
 H        13.8818253785       -2.2306391602      -17.9091374740
 H        12.9736888232       -3.6627204121      -18.1812356473
 H        12.2893154211       -2.5756799145      -17.0732033039
 H         5.1023382460       -1.0786186886      -18.1656399237
 H         6.3680107311       -1.0188809377      -19.3169841101
 H         5.3083818314        0.4265956827      -18.8621199381
 H         7.3676445668        1.5076623289      -16.0919743666
 H         5.7765000077        1.1437032917      -16.2437670790
 H         6.5528906253        2.0624585298      -17.5866881343
 H         4.1357557031       -4.3743306109      -11.9625816272
 H         5.7415012516       -3.6226636680      -12.3581424284
 H         4.8020308806       -4.7320615624      -13.4562364679
 H         2.3280953976       -4.0839751094      -13.4017033308
 H         2.6274725155       -3.3351465482      -14.9075252567
 H         1.7792370346       -2.4729206875      -13.5254636698
 H         0.7245616087        3.7925054238      -10.9653815455
 H         0.3358323776        3.3885402291      -12.5582952296
 H         1.8261843637        2.9452364194      -12.0700655515
 H         2.0616073850        1.6955761563       -9.7800166059
 H         0.6960720307        0.4732925778       -9.4072711203
 H         0.6887402011        2.2004591713       -8.9842623426
 H        -5.4331864751        4.1652779982       -8.2104748068
 H        -4.7509688344        3.9885040871       -6.6141453448
 H        -6.2158814230        3.1198212518       -6.8028573325
 H        -3.6787250249        1.7875667566       -5.7896763860
 H        -2.6104223179        1.6966745162       -7.2773939957
 H        -3.6363015581        0.4537246623       -6.7316090741
 H        -9.7949075779        2.3714071206      -11.2251350064
 H       -10.8130642644        1.2326475450      -12.2846839021
 H        -9.0940858664        0.8153031990      -11.9023299819
 H       -12.5656566655        1.2954962483      -10.8374267645
 H       -11.8684728957        2.7305741771      -10.0721877206
 H       -12.3523424205        1.3786005484       -9.1094458593
 H       -11.2575004997       -5.3830431578       -8.2149668229
 H       -12.4076554947       -5.4855463354       -9.4534451167
 H       -12.4913478504       -6.6071807965       -8.0899175684
 H       -14.7644609800       -5.7794742767       -6.7759695480
 H       -15.1029541142       -5.4283735489       -8.4365512929
 H       -15.0950441721       -4.1337221389       -7.2104496577
 H       -13.7395278063        1.1962891064       -3.5146687697
 H       -14.4247551739       -0.0477804499       -4.5163903715
 H       -12.7332823929        0.1415030778       -4.2641890895
 H       -12.7425628961        0.4027839384       -0.9208310184
 H       -11.6880220227       -0.0388120092       -2.2677303707
 H       -12.0223108115       -1.2405675447       -1.0231825176
 H       -16.1557078380       -4.5986316185        1.7424506455
 H       -15.3439075703       -3.5620159159        0.3639740718
 H       -16.4369675404       -4.8248595231       -0.0431284264
 H       -18.8759062762       -4.6355364089        1.7189780597
 H       -18.8698158241       -4.4407958123       -0.0369350019
 H       -19.7281514843       -3.1951037787        0.7305955809
 H       -16.8270236558        0.7252809515        5.7849543587
 H       -18.5515996336        1.1586344238        6.3469178098
 H       -17.2802663358        2.2136737555        6.5101561434
 H       -19.0731285790        3.7418616368        5.3069551837
 H       -20.0383602693        2.3786391871        5.0965540307
 H       -19.6242857072        3.3829041941        3.7058193303
 Na      -16.6849907767        0.5862020967        1.0153880836
 Na        9.1483101025       -3.7281788316      -17.7271846463
