232

 C       -16.0041041915        3.6880753903        4.5352698747
 C       -16.7319981813        2.6449197792        3.7330521935
 O       -16.3022483060        2.1701119104        2.7230653676
 C       -17.9902717882        1.9260033606        4.4346242165
 C       -18.4893901022        0.7906510421        3.4555240923
 O       -18.7535329401        1.0121399966        2.2883432847
 C       -18.5450683361       -0.6430228929        3.9719900001
 C       -18.8214073268       -1.7583221682        2.8936230124
 C       -17.4382536070       -2.0984587713        2.2134221178
 O       -16.3390431432       -1.5880261888        2.5454959473
 C       -17.4484605908       -3.1111204549        1.0055809689
 C       -17.4815780846       -2.0403648623       -0.2477999706
 O       -18.1091178501       -1.0179537928       -0.0496905364
 C       -16.9118377167       -2.3077518306       -1.5791574028
 C       -16.3430257178       -1.0027941764       -2.2325842014
 C       -14.9238338440       -0.6278109140       -1.6378724441
 O       -14.8941437360       -0.1305754932       -0.5238784084
 C       -13.5941587287       -0.8422753547       -2.5626710925
 C       -13.6195776310       -2.3738674753       -3.1826103953
 O       -14.2090475312       -3.1718347788       -2.4715171676
 C       -12.6922123450       -2.7735736882       -4.2943404560
 C       -13.2800072494       -4.0090959574       -4.9235697466
 C       -12.4448999327       -4.3692478860       -6.1728381758
 O       -11.2781262101       -4.4676214864       -6.1071353561
 C       -13.0810949661       -4.5672772778       -7.6666160248
 C       -13.0847596036       -3.1247386918       -8.3039074813
 O       -13.7826143895       -2.2742711004       -7.7841840505
 C       -12.2763675972       -2.7778303620       -9.5296884003
 C       -12.2049441698       -1.2375916035       -9.6609565600
 C       -10.9848783833       -0.6300847261      -10.3470184469
 O       -10.2510096825       -1.3126742924      -11.0466682863
 C       -10.6851578281        0.8277406063      -10.2709106760
 C        -9.6265596100        0.9390214782       -9.0744927784
 O       -10.0245905452        1.1780968522       -7.9386768742
 C        -8.0054714936        0.6262922964       -9.1837775718
 C        -7.2414686420        1.5241974901       -8.1618290130
 C        -5.8304009223        0.9842647458       -8.0696803404
 O        -5.5954375132       -0.1978575067       -7.8865579760
 C        -4.7170838336        2.0303870672       -7.8174125175
 C        -4.0259918182        2.3058155071       -9.2542005657
 O        -3.7808760605        3.4480109779       -9.5895129924
 C        -3.5117062413        1.0288203496       -9.9863887813
 C        -2.0114957573        0.9989121299      -10.0052463974
 C        -1.3656320237        1.8272340310      -11.1031156192
 O        -1.9911555445        2.4138238343      -11.9432074462
 C         0.2257692035        1.8219434356      -11.1199627138
 C         0.4960872003        0.4212629035      -11.8718647224
 O        -0.4674338092       -0.3868363880      -11.7503920825
 C         1.8825547228       -0.0148789626      -12.5500534364
 C         2.6505971536       -0.9798783587      -11.5514140626
 C         3.9801395675       -1.5911806322      -12.1506832412
 O         5.0409161065       -1.3620704348      -11.5864963098
 C         4.0769737660       -2.7253894974      -13.3391004055
 C         5.1429074806       -2.0068434871      -14.3890933836
 O         4.7363392200       -1.4580600929      -15.4144345005
 C         6.5871617365       -2.1882928142      -14.1822700653
 C         7.2680510040       -1.1233346922      -15.0258525082
 C         7.2949633529       -1.3735894126      -16.5636941685
 O         7.4888991904       -2.4448767954      -17.0369494332
 C         7.0115721751       -0.1399605937      -17.5466741341
 C         8.3057699316        0.1889502999      -18.4169747313
 O         8.5723127331       -0.3477219155      -19.4826246822
 C         9.4340865391        0.8938664636      -17.6310787252
 C        10.8004672725        0.5126371964      -18.1548189612
 C        10.8759392585       -1.0292397880      -18.1465165772
 O        10.0050420073       -1.6812083398      -17.5670573985
 C        11.9788579196       -1.8045782654      -18.8877216562
 C        11.3259001535       -3.0301981267      -19.7294962947
 O        11.3441629541       -4.1246316300      -19.2469959957
 C        10.6696461165       -2.6528509675      -21.0900453226
 C         9.8888195430       -3.7565468294      -21.7771940382
 C         8.5239968382       -4.1786330202      -21.0967437934
 O         8.0317127812       -3.5545354841      -20.1274222440
 C         7.8160740400       -5.4131782768      -21.7461899851
 C         7.2283458278       -6.3906891766      -20.6225865336
 O         6.2014298999       -6.1021792396      -20.0372023979
 C         7.9609545386       -7.7592348756      -20.3037722754
 C         8.0603341661       -7.9952704906      -18.8039600588
 C         8.7619642415       -6.8427973569      -18.1502273266
 O         8.7934341014       -5.7806235167      -18.7328167383
 C         9.5190261922       -6.9936621943      -16.7132763510
 C         8.6810071878       -6.1176545728      -15.6714845851
 O         8.7112607669       -4.8852367513      -15.7302669018
 C         8.1285121283       -6.7318177495      -14.3941521366
 C         9.4522811631       -8.5009729618      -16.2153373866
 C        10.9791032235       -6.4645075667      -16.6788027050
 C         6.6120254229       -4.7343126145      -22.5439319475
 C         8.6744163182       -6.2030630413      -22.7672631818
 C        12.8036148523       -0.9985863155      -19.8476365724
 C        13.0270184632       -2.4384688910      -17.9067078779
 C         5.8765694470       -0.5402965570      -18.5415778213
 C         6.6500086285        1.2097560552      -16.9316964781
 C         4.8704085805       -3.9023681372      -12.7050411126
 C         2.7274808611       -3.0567272852      -13.9362067744
 C         0.7739011872        3.0191478505      -11.8001188316
 C         1.0014140304        1.5399733571       -9.8236671708
 C        -5.3122615369        3.3813020407       -7.2426771077
 C        -3.6904600331        1.5552444341       -6.8533883528
 C       -10.0337977300        1.3410044998      -11.6203145628
 C       -11.9269777393        1.6094461612       -9.7888744059
 C       -12.2718648937       -5.8050025674       -8.4619380259
 C       -14.5690357218       -5.0850551348       -7.4730084493
 C       -13.6393532137        0.1620692574       -3.7055793402
 C       -12.5249520564       -0.5946001767       -1.5543141066
 C       -16.3005025848       -4.0657661826        0.9651081258
 C       -18.7913848004       -3.8366850238        1.0633647931
 C       -17.5115144621        1.4473365493        5.8070071244
 C       -19.1331585785        2.9499914525        4.4278223426
 H       -15.5657230669        4.4378334479        3.8480217938
 H       -15.2167949794        3.2910566230        5.1865296542
 H       -16.6240810448        4.2964174808        5.1846668714
 H       -19.2825124919       -0.7228955718        4.7391839719
 H       -17.6512262891       -0.9672548323        4.5418220935
 H       -19.7262889099       -1.4832912359        2.2397242186
 H       -18.9613751066       -2.7372778942        3.4059335299
 H       -17.6759069669       -2.8344977106       -2.1794899594
 H       -16.1656629065       -3.1358140484       -1.4960733528
 H       -16.9433626476       -0.1456203660       -1.9021166927
 H       -16.3373791467       -1.0000027274       -3.3152521853
 H       -11.7577359907       -3.1520690317       -3.8222284695
 H       -12.4736980749       -1.9227858389       -4.9313977761
 H       -14.2908113231       -3.8136483263       -5.1215310705
 H       -13.2160967127       -4.8247208441       -4.2542332322
 H       -12.5648999368       -3.3417633804      -10.4062157085
 H       -11.1777152785       -3.0768533090       -9.3823296589
 H       -12.3345956945       -0.7313814005       -8.7300555277
 H       -13.1005659293       -0.9592226233      -10.2994331998
 H        -7.5736003584        0.4898247409      -10.1536967426
 H        -7.9542856600       -0.3814727242       -8.8107006756
 H        -7.8183780079        1.5553408464       -7.2986102742
 H        -7.3463144489        2.5379017464       -8.5694731696
 H        -3.9371331030        0.9534052825      -11.0155316205
 H        -3.8575270078        0.1750761964       -9.4509984802
 H        -1.6225675498       -0.0130742040      -10.1040845455
 H        -1.6467314696        1.3326479699       -9.0686654146
 H         2.5283200799        0.8974408733      -12.6402740826
 H         1.6639992724       -0.5902704952      -13.4747151433
 H         2.0003711209       -1.9132852971      -11.3190042138
 H         2.8084692513       -0.4839601639      -10.5666455918
 H         6.8798083584       -3.1945332895      -14.4117753982
 H         6.7562033655       -2.0440527776      -13.1249272103
 H         8.3258123140       -1.1160365586      -14.7695818236
 H         6.9865346759       -0.1180689069      -14.7847605756
 H         9.3135993833        0.8775423333      -16.5510412392
 H         9.2309729491        1.9508244303      -17.8058369126
 H        11.6856482708        0.9615133438      -17.7246368216
 H        10.8809796269        0.8173857014      -19.1695897386
 H        11.3626532947       -2.3543294144      -21.8531279292
 H        10.0388481534       -1.8693346289      -20.7030623383
 H        10.4406733239       -4.6762664728      -21.7687468935
 H         9.7212771074       -3.5137394695      -22.8068223290
 H         8.9288967636       -7.6626799243      -20.7082641540
 H         7.4600722683       -8.5780402590      -20.8614074361
 H         8.6662395853       -8.8647673853      -18.5395816692
 H         7.0417045391       -8.0919152106      -18.4065627301
 H         8.9313170792       -7.3901091243      -13.9382726584
 H         7.2235347565       -7.4210298884      -14.5256301248
 H         7.8344981073       -5.9275251296      -13.6234558124
 H         8.4986420252       -8.6366477430      -15.7233284633
 H        10.3058554632       -8.5142386035      -15.5361805294
 H         9.8141527040       -9.3311482733      -16.8527365638
 H        10.8646540001       -5.4110191496      -16.9143902041
 H        11.6032600961       -7.0866899465      -17.2706172952
 H        11.3378737377       -6.4338593622      -15.6211939782
 H         5.7444874172       -5.3586528079      -22.7094669830
 H         7.0626595896       -4.4596055185      -23.5041566764
 H         6.2457588185       -3.9543682629      -21.9094950338
 H         8.0576580539       -7.0791093830      -22.9753555597
 H         9.5200519108       -6.6478423658      -22.3084453105
 H         8.8930387415       -5.7084984836      -23.7039646691
 H        12.1750710476       -0.5024091014      -20.5592578887
 H        13.6646955629       -1.5686658006      -20.2800728871
 H        13.2272843764       -0.1333719154      -19.2917755200
 H        13.7938530240       -1.7234899639      -17.5914192878
 H        13.6709250549       -3.1175460565      -18.4887014558
 H        12.4217370862       -3.0525550525      -17.2281631885
 H         5.1052652469       -1.0230144541      -17.9058151394
 H         6.2006893796       -1.2651357788      -19.2716303855
 H         5.4415972270        0.3320703251      -18.8621737880
 H         7.3617147530        1.4042737588      -16.1412504457
 H         5.7790149968        1.2343433752      -16.3045671974
 H         6.6814183334        2.0255394256      -17.6242119675
 H         4.2233065794       -4.5372293333      -12.0741087418
 H         5.7198885618       -3.5299704185      -12.2069997332
 H         5.1092685340       -4.6199414203      -13.4345584079
 H         2.1383757344       -3.9702085628      -13.6274201902
 H         2.9156177570       -3.2033777231      -14.9996246547
 H         1.9784996926       -2.2154490839      -13.7759197620
 H         0.3306935334        3.8852838450      -11.3387626684
 H         0.3877360458        3.0736639592      -12.8294798007
 H         1.8267537305        3.1332623076      -11.9721173952
 H         1.9791706301        1.7999208279       -9.9213846801
 H         0.7373146132        0.5320963177       -9.5141579117
 H         0.6366385545        2.1803937133       -8.9732393511
 H        -5.7306749979        3.9755506650       -8.0600202755
 H        -4.5842495705        4.0422042156       -6.7542165066
 H        -6.0274983358        3.0632743019       -6.4285420289
 H        -3.9447337626        1.8585997419       -5.8250312483
 H        -2.7345617517        1.9380638090       -7.1984724896
 H        -3.5745316556        0.4417950622       -6.6548965915
 H        -9.5972895084        2.3199842642      -11.4383506603
 H       -10.8420265286        1.3245649508      -12.3086267104
 H        -9.3313998032        0.5286251268      -11.9563149308
 H       -12.8701120250        1.2930806552      -10.2840004913
 H       -11.8051957049        2.6514350668       -9.9303300804
 H       -11.8742303116        1.3697337803       -8.7156500167
 H       -11.1546161437       -5.6728773371       -8.4400293724
 H       -12.5168345566       -5.9504568468       -9.5175924688
 H       -12.4713864386       -6.7182755805       -7.9532829141
 H       -14.6045500474       -6.0462479425       -6.8901427800
 H       -15.2758439145       -5.2695748510       -8.3236902350
 H       -15.1025855738       -4.3051225145       -6.8629905373
 H       -13.5750118702        1.1751640340       -3.4329870086
 H       -14.4847937512       -0.0044522113       -4.3549428865
 H       -12.8290261742        0.0490675917       -4.3139585884
 H       -12.7348164871        0.2626682387       -0.9792352565
 H       -11.5512282895       -0.4330521571       -2.1081084809
 H       -12.3823052488       -1.5107260699       -0.9497724901
 H       -16.0133643975       -4.4256471516        1.9891723346
 H       -15.5230289346       -3.5873378671        0.3986017110
 H       -16.5980732913       -4.9462489892        0.3957869500
 H       -18.9583938758       -4.4132787505        1.9652498249
 H       -19.0483535697       -4.5713977175        0.2282249298
 H       -19.5907352716       -3.0905054623        0.8620334736
 H       -16.5859022993        0.9141161457        5.6800339732
 H       -18.3427416436        0.8778413677        6.2859955034
 H       -17.2885774364        2.2209763451        6.4946616185
 H       -19.1289529137        3.8231112708        5.0209727127
 H       -19.9911869780        2.3819919390        4.7723737920
 H       -19.3015109664        3.3072150407        3.4338585426
 Na      -16.8186529249        0.6966079387        0.9402861267
 Na        9.2347212951       -3.6372904169      -17.6987200978
