232

 C       -16.0604893894        3.6477029105        4.4188785641
 C       -16.6253613572        2.5811868396        3.6480364959
 O       -16.2091592545        2.2797099750        2.5440058801
 C       -18.0261489048        1.8625342482        4.3581049377
 C       -18.5353155701        0.7937234604        3.4970113316
 O       -18.8952829729        1.0985883943        2.3412156853
 C       -18.4997376093       -0.6216731083        4.0772241150
 C       -18.7671403127       -1.7101396720        2.9827548262
 C       -17.4701821820       -2.0297394198        2.2795666008
 O       -16.4042876839       -1.5933197862        2.6522342202
 C       -17.5271969332       -3.0324729179        1.0212485037
 C       -17.5541483897       -2.0800198536       -0.2791326727
 O       -18.1532452669       -1.0172554645       -0.1026850531
 C       -16.8840087305       -2.3207900253       -1.5991186386
 C       -16.3531476756       -1.0128285875       -2.1434543727
 C       -14.9544715727       -0.6202161642       -1.6552464524
 O       -14.8048061990       -0.0998770461       -0.5542527741
 C       -13.6498771429       -0.8530542183       -2.5127396858
 C       -13.6099666533       -2.3675781978       -3.0364015369
 O       -14.2379380890       -3.2117540225       -2.4933880934
 C       -12.8068202864       -2.6621390573       -4.3021113498
 C       -13.2950763612       -3.9866725729       -5.0166169453
 C       -12.4221479246       -4.3785852014       -6.2490460082
 O       -11.2279868291       -4.3844857384       -6.1337449170
 C       -13.1249823445       -4.5947491411       -7.5332917498
 C       -13.0451259043       -3.2040683757       -8.3177250044
 O       -13.7611496945       -2.3821131255       -7.7166661705
 C       -12.1661037768       -2.7501781988       -9.4790705014
 C       -12.2499602458       -1.2142533432       -9.6863004938
 C       -10.9773676356       -0.6249932885      -10.4236425867
 O       -10.2405791322       -1.3769813406      -11.0224327313
 C       -10.6386035236        0.9611589148      -10.1131707426
 C        -9.5848815399        0.9137270582       -8.9372141720
 O       -10.0064011978        1.0443818099       -7.8094675264
 C        -8.1555234763        0.4913848179       -9.0987946561
 C        -7.2948706309        1.3759380760       -8.1356294311
 C        -5.8788283886        0.8968080162       -7.9133426302
 O        -5.5624460129       -0.2702227830       -8.0939649432
 C        -4.7691308617        2.0447035265       -7.7488049243
 C        -4.0638652220        2.2610287498       -9.1995394096
 O        -3.6449604957        3.3116105683       -9.5977824296
 C        -3.6002221275        1.0320604760       -9.9702630736
 C        -2.0600145175        1.0623959252       -9.9208044882
 C        -1.3232140020        1.8934576444      -11.0253633926
 O        -1.8987140592        2.3410022832      -12.0658060140
 C         0.2311029088        1.7870769590      -11.1739449412
 C         0.4433143153        0.3812796336      -11.8531944240
 O        -0.4025404027       -0.4574029205      -11.8209080617
 C         1.7596687174        0.0662828286      -12.6045512667
 C         2.6811642642       -0.9854329635      -11.7974021212
 C         4.0895408756       -1.5328733334      -12.2021820067
 O         5.0878490798       -1.1766926065      -11.6129341958
 C         4.1764068539       -2.5693754271      -13.3694441712
 C         5.1300958812       -2.0389429123      -14.3935064213
 O         4.6129115022       -1.5253973496      -15.3765357785
 C         6.6784376114       -1.9992450502      -14.0954531862
 C         7.3976152480       -0.9835538435      -15.0790364531
 C         7.2730529168       -1.3184327220      -16.5408776602
 O         7.4331703160       -2.4128508492      -17.0534806917
 C         7.0781263568       -0.1264255434      -17.5280546795
 C         8.3961428583        0.0238817560      -18.3691178707
 O         8.5652762748       -0.3823371142      -19.4889174142
 C         9.5323613845        0.8172145127      -17.6813590963
 C        10.8935043573        0.4418012620      -18.2512845911
 C        10.9741661966       -1.0870089912      -18.2000331562
 O        10.1056157603       -1.6227666438      -17.5698481963
 C        12.1269916166       -1.8814444953      -18.9452285574
 C        11.3631053898       -3.0794686739      -19.7901317958
 O        11.4146374203       -4.2309205946      -19.4694952369
 C        10.6016437733       -2.6615234657      -21.0468622493
 C         9.8950975372       -3.8518955542      -21.7493278237
 C         8.5736604237       -4.2693395222      -21.0459159593
 O         8.1546680835       -3.6179184715      -20.1154611601
 C         7.7402968936       -5.4463016534      -21.7784015906
 C         7.2187264829       -6.3711304228      -20.5641057192
 O         6.2359034443       -6.1958761032      -19.8870176070
 C         8.0107578475       -7.7335242165      -20.3717599402
 C         8.0585742350       -7.9985100567      -18.8632936303
 C         8.7206150669       -6.8453232208      -18.0939839933
 O         8.6631472136       -5.7667479651      -18.5997611091
 C         9.3515304092       -6.9376933425      -16.6244819641
 C         8.6895055608       -6.0314160646      -15.5538149086
 O         8.6308013796       -4.8338981997      -15.7247749993
 C         8.1148080192       -6.7093872160      -14.3025635721
 C         9.3796420846       -8.4669047689      -16.2572122474
 C        10.8282535475       -6.4725059319      -16.7330371667
 C         6.5971449189       -4.8392530480      -22.6530467637
 C         8.5721775622       -6.2037187336      -22.8037372595
 C        12.8948358528       -0.8059355928      -19.8797032666
 C        13.1301885522       -2.3804212861      -17.7718247881
 C         5.9012962366       -0.6626601793      -18.5710205496
 C         6.5656485690        1.1818693112      -16.7936515053
 C         4.7836241516       -3.9198729127      -12.7272696168
 C         2.9247768537       -3.0017301000      -14.0907016605
 C         0.7536548330        3.0558482049      -12.0259322103
 C         0.9168019447        1.6946744398       -9.7538661534
 C        -5.2927400178        3.3960448806       -7.2065084351
 C        -3.6646898886        1.5419724649       -6.8284201951
 C       -10.1499045694        1.4045539512      -11.5911929632
 C       -11.8729835317        1.7750941218       -9.6491605644
 C       -12.3843354758       -5.6850462814       -8.3859755079
 C       -14.5865175231       -5.1203355357       -7.5089082347
 C       -13.6559765832        0.1664800749       -3.6267760853
 C       -12.3712819435       -0.7960562101       -1.5889847536
 C       -16.3057404508       -3.9777187870        1.2022005744
 C       -18.8900455766       -3.9208153061        1.0763911319
 C       -17.5827960227        1.4305830510        5.7643318197
 C       -19.0677959750        3.0050837937        4.3674844435
 H       -16.0048032302        4.5584525545        3.7975472404
 H       -15.0689408064        3.4291265308        4.7429827673
 H       -16.6437697395        3.9795035422        5.3099502489
 H       -19.3532964040       -0.7767608882        4.8111710263
 H       -17.6431448680       -0.8139724566        4.7102468187
 H       -19.3830091663       -1.1621908789        2.3001575648
 H       -19.2919736635       -2.6618940812        3.2900925323
 H       -17.6181504493       -2.7680650867       -2.3139063259
 H       -16.1200904595       -3.1398705482       -1.5841544774
 H       -17.0255598151       -0.1416699235       -1.8926579924
 H       -16.2884525779       -1.0565659023       -3.2150576910
 H       -11.7578783809       -2.8459866094       -4.0525513896
 H       -12.8849533128       -1.7640241509       -4.9428389425
 H       -14.2558259585       -3.7588447308       -5.3584281348
 H       -13.3953637812       -4.8410725559       -4.2775227855
 H       -12.5591610147       -3.2879537709      -10.3536417364
 H       -11.1065336404       -3.0819371037       -9.4307987746
 H       -12.4306762836       -0.6402539828       -8.7899799574
 H       -13.1551667875       -1.0927242165      -10.3116807901
 H        -7.9520947393        0.3752875927      -10.1955956711
 H        -8.0321196629       -0.5514960749       -8.8560026040
 H        -7.9832677945        1.5339824072       -7.3331486186
 H        -7.3196801023        2.3376420992       -8.6070224949
 H        -3.7969440477        1.1563352475      -10.9932938183
 H        -4.1082460514        0.0870021302       -9.6419246896
 H        -1.5299532475        0.1064849085       -9.8629749734
 H        -1.6858681429        1.6015178710       -9.0275817825
 H         2.3239508728        1.0196728820      -12.7180304733
 H         1.4328202532       -0.4400730634      -13.4781505250
 H         2.0405999489       -1.9066508210      -11.6659408963
 H         2.7797985763       -0.5587342997      -10.7712632909
 H         7.0494197732       -3.0375339869      -14.1027152066
 H         6.7998569724       -1.6393541957      -13.0243463872
 H         8.4665338016       -0.8720188840      -14.9116479684
 H         7.0919147429        0.0439730921      -14.8917215896
 H         9.5299574063        0.7970029092      -16.6124123184
 H         9.2497203197        1.8839372232      -17.8846469274
 H        11.7466532986        0.8232597372      -17.6837644013
 H        11.1227002754        0.8756531088      -19.2477086494
 H        11.3567275006       -2.4016258686      -21.8286743999
 H         9.9209069584       -1.8381609509      -20.7573391097
 H        10.5151787767       -4.7313933787      -21.7073787622
 H         9.7057790064       -3.6330602337      -22.7809843612
 H         9.0669781628       -7.6904320707      -20.7448502692
 H         7.4631979161       -8.5624096168      -20.8979394790
 H         8.5750679758       -8.9443557298      -18.7244852876
 H         7.0514478690       -8.0353577174      -18.4170469534
 H         8.8550787307       -7.0086137367      -13.5492283658
 H         7.4799439579       -7.6244738525      -14.5533283126
 H         7.4593685650       -6.0263112222      -13.8230280090
 H         8.3804650159       -9.0060793878      -16.4280008760
 H         9.8279541621       -8.5099308214      -15.2449464166
 H        10.2348717573       -8.9427257130      -16.7541999106
 H        10.8608058430       -5.4246048177      -17.0879109136
 H        11.3859008092       -7.2783056806      -17.2643980137
 H        11.2085919247       -6.4305983255      -15.6719064490
 H         5.6644701449       -5.4902807331      -22.6197711532
 H         7.0018083725       -4.8160123281      -23.6469577790
 H         6.2370865988       -3.9668300618      -22.1981686373
 H         8.0666571836       -7.0447098208      -23.1241109849
 H         9.4684557715       -6.5232254584      -22.3226416595
 H         8.7563796737       -5.5718719506      -23.6724748841
 H        12.1707236635       -0.3978909243      -20.6357384530
 H        13.8115533633       -1.2157845470      -20.3448052834
 H        13.1735124423        0.1856976997      -19.3138264076
 H        13.1360351511       -1.5015599760      -17.0401542994
 H        14.1704072763       -2.2384467994      -17.9993780080
 H        12.7962015829       -3.3901631617      -17.4434447647
 H         5.0887805057       -0.8007182316      -17.7891838209
 H         6.1226427312       -1.6555568653      -18.9184534353
 H         5.5319372959        0.0875753180      -19.2896296321
 H         7.1149211662        1.5221753865      -16.0008747483
 H         5.6434825606        0.9862976831      -16.3169419523
 H         6.4412670008        2.0239468720      -17.5269273356
 H         3.9994340171       -4.5503596615      -12.3969679187
 H         5.5094161800       -3.7019259166      -11.9269413727
 H         5.1578849328       -4.5591533034      -13.4630420669
 H         2.3494684537       -3.8330244251      -13.5995397727
 H         3.2654700649       -3.4495488238      -15.0616518405
 H         2.1605670599       -2.2545921014      -14.1960785217
 H         0.1829950548        3.9252428016      -11.6946272365
 H         0.5360755666        3.0225081698      -13.1242558666
 H         1.8523595413        3.2926892566      -12.0586365088
 H         1.9930390267        1.8599007509       -9.8496765069
 H         0.5691973870        0.8665962034       -9.1513216816
 H         0.5504627425        2.5379499419       -9.1824301414
 H        -6.0454399719        3.8494071961       -7.8361606962
 H        -4.4268413322        4.1218156095       -7.2933037494
 H        -5.4882468256        3.3074918673       -6.1697774308
 H        -4.0981503048        1.3564187725       -5.8226679016
 H        -2.7056335754        2.1096617658       -6.8365749095
 H        -3.4310674834        0.4415136483       -7.0520939707
 H        -9.5242153258        2.3000441744      -11.6532209611
 H       -11.0224725480        1.4464663876      -12.1942742406
 H        -9.6920197429        0.4764167177      -11.8786749243
 H       -12.7679474387        1.4802662782      -10.2293392564
 H       -11.6593786785        2.7989905545       -9.9663464028
 H       -11.9585845031        1.6528415913       -8.5202464944
 H       -11.3615262190       -5.3195199959       -8.5097662621
 H       -12.7841232351       -5.8457727199       -9.4153796046
 H       -12.3222475112       -6.6524009869       -7.9158454762
 H       -14.7152742730       -6.2041587128       -7.1276657630
 H       -14.9593145987       -5.1991591044       -8.5088556346
 H       -15.3441141079       -4.4577527724       -7.0436493409
 H       -13.4938082109        1.1977718484       -3.1697088355
 H       -14.4552278958        0.2050739698       -4.2943250315
 H       -12.7684696600        0.0728906014       -4.2407623395
 H       -12.0862934387        0.1790432807       -1.1880405915
 H       -11.5548933684       -1.1727285954       -2.2118230604
 H       -12.4782266295       -1.6058334951       -0.8436481661
 H       -16.2113287894       -4.2563850080        2.1987846073
 H       -15.4578625559       -3.4812569717        0.7748746782
 H       -16.5216678273       -4.9498357244        0.6679192157
 H       -18.8879752718       -4.3880012010        2.0194101144
 H       -18.9034154837       -4.7703573509        0.3864668976
 H       -19.7906482711       -3.4532888717        0.8595793331
 H       -16.5329349147        1.0818841322        5.7412118394
 H       -18.2491539081        0.7580105165        6.2318228331
 H       -17.4501913381        2.3859109879        6.4055685436
 H       -18.7886500617        3.8639717371        4.9175270502
 H       -19.9941550252        2.6498362838        4.7664113363
 H       -19.2095687474        3.4648984224        3.3527073305
 Na      -16.8656354883        0.7298795774        0.8706346614
 Na        9.2634547982       -3.7335054705      -17.7954764205
