232

 C       -15.7864180686        3.8219505743        4.1874587757
 C       -16.6363897235        2.5906906832        3.5497790756
 O       -16.3270260250        2.2991497760        2.4188766198
 C       -17.9822451640        2.0529922570        4.2724292911
 C       -18.5406528122        0.7686508017        3.4144494207
 O       -18.8875654908        0.9564266479        2.2754686683
 C       -18.6782489010       -0.6052071868        4.1697976656
 C       -18.9455477056       -1.6825509545        3.1270382146
 C       -17.6420788979       -2.0024218079        2.2941427612
 O       -16.6143870100       -1.3755841729        2.6127468211
 C       -17.5498764701       -3.0259661813        1.0724301415
 C       -17.5794454102       -1.9496583366       -0.0781002474
 O       -18.3292931177       -1.0081079207       -0.0578416343
 C       -16.8661187890       -2.4211534596       -1.3535162726
 C       -16.2217886226       -1.2900520856       -2.1412604674
 C       -14.8748933921       -0.7064955193       -1.4713511676
 O       -14.9978323656        0.0426994128       -0.5159735619
 C       -13.6169280188       -0.9391461402       -2.3030176931
 C       -13.7502956512       -2.3864099877       -3.1006914312
 O       -14.2359189555       -3.3400321280       -2.5069013505
 C       -13.0429419869       -2.5954981824       -4.5050991478
 C       -13.3824323254       -3.9172681278       -5.1037037273
 C       -12.4843079574       -4.2634469670       -6.2496188679
 O       -11.2716100918       -4.3123242534       -6.1878243432
 C       -13.0546107221       -4.5781576641       -7.6555834975
 C       -13.1781013654       -3.1467160887       -8.1202805947
 O       -13.9113836317       -2.3390246792       -7.6190123056
 C       -12.1173236196       -2.7313382534       -9.1950603530
 C       -12.2915054706       -1.2404182927       -9.6098640337
 C       -11.1364560951       -0.6199843508      -10.3339950870
 O       -10.2897097885       -1.3327494185      -10.8395959196
 C       -10.7242046633        0.9213501214       -9.9895890388
 C        -9.8076635445        0.7201156901       -8.8044668174
 O       -10.1555146644        0.8113241155       -7.6364499626
 C        -8.1843792871        0.3930626776       -9.0538954090
 C        -7.3264975754        1.2745275174       -8.1549904879
 C        -5.8665903088        0.8570565758       -8.0884521345
 O        -5.5078621340       -0.2819180448       -8.3070371378
 C        -4.7247021368        1.9651803394       -7.8052551962
 C        -3.9508368808        2.3298202627       -9.0611334002
 O        -3.7931438420        3.5035610544       -9.3868414020
 C        -3.4732025335        1.0924027184       -9.9354644140
 C        -1.9336405156        0.9954637670       -9.9215939203
 C        -1.3609857292        1.6856230269      -11.2721815544
 O        -2.0719395989        2.2415729671      -12.0296933522
 C         0.2836338656        1.7206493212      -11.3004320768
 C         0.6471648629        0.3469036532      -11.9039301347
 O        -0.0693921967       -0.6967215157      -11.9306339409
 C         2.0296293837        0.1753216934      -12.5831622833
 C         2.5290727861       -1.1278621939      -11.8676372604
 C         3.9526090944       -1.4818602310      -12.3231204933
 O         4.8966564791       -0.7972598073      -11.9142685911
 C         4.2464281517       -2.5065614934      -13.4162649539
 C         5.3454079839       -1.8595560546      -14.5398761823
 O         4.9142658637       -1.4086292962      -15.5793282095
 C         6.7976700126       -1.7435024367      -14.0735386779
 C         7.5989269753       -0.9289260794      -14.9547670578
 C         7.3322160512       -1.2892330976      -16.4973273446
 O         7.3749390771       -2.4762841355      -16.7393186038
 C         6.9823308442       -0.1074367129      -17.6136057367
 C         8.3774894367        0.0674875596      -18.3576994020
 O         8.5628262486       -0.3993935335      -19.4683236594
 C         9.4856238573        0.8302906405      -17.7396537257
 C        10.7964443930        0.3762508804      -18.3186802356
 C        11.0538331531       -1.1444566880      -18.2914983973
 O        10.4487167677       -1.8355309985      -17.4566744918
 C        12.2444636830       -1.8065567484      -19.1218857168
 C        11.5368966287       -2.9589671789      -19.8380134768
 O        11.7914771002       -4.0625616898      -19.4089620716
 C        10.5425929677       -2.6358876057      -20.9829112456
 C        10.0028794567       -3.9034234087      -21.6989021069
 C         8.5891325733       -4.3315171376      -21.2082387511
 O         8.1954187546       -3.8354396167      -20.1459343380
 C         7.8089625232       -5.4622744812      -21.7830985379
 C         7.3074365223       -6.4165663161      -20.5423453892
 O         6.2268212410       -6.0716665679      -20.0806422261
 C         8.1555117437       -7.6464348652      -20.2537275025
 C         8.1051368671       -8.1141843953      -18.7486233074
 C         8.5628767166       -6.9222791539      -17.9355466463
 O         8.4951151999       -5.8239610143      -18.4727470130
 C         9.2705861628       -7.1631430462      -16.5833985040
 C         8.5648738316       -6.0994266100      -15.4996034539
 O         8.5644394478       -4.9154910431      -15.8011051079
 C         7.9279502094       -6.5217484260      -14.1929837871
 C         9.2550290435       -8.5219387024      -16.0222470054
 C        10.6790707179       -6.5811859051      -16.8072372412
 C         6.4258725378       -4.8899441864      -22.2671269013
 C         8.5602759309       -6.2678656607      -22.8645220230
 C        13.1451251421       -0.9688410184      -20.1084545779
 C        13.2010322998       -2.5070467508      -17.9942522578
 C         6.0042047724       -0.6875094339      -18.6521114838
 C         6.4551062623        1.2383987178      -17.0260068999
 C         4.7972344125       -3.6560154351      -12.6892130252
 C         2.8941165218       -2.9613202402      -14.1664790493
 C         0.7404355354        2.7725525907      -12.2945899853
 C         0.8549885741        2.0875698307       -9.9377377581
 C        -5.2828340235        3.2757093810       -7.1312870217
 C        -3.7598550207        1.2791756138       -6.8260925229
 C        -9.9317340986        1.4779654795      -11.1465867593
 C       -11.9390640124        1.7924836039       -9.5083010238
 C       -12.1853168020       -5.5347375600       -8.4797263364
 C       -14.5241423647       -5.1077437755       -7.5955604918
 C       -13.5896186202        0.2149773899       -3.2878063326
 C       -12.3175029429       -0.9964251335       -1.5846624740
 C       -16.2594442315       -3.7912833231        1.1455326508
 C       -18.8249686978       -3.9034017654        0.9716752091
 C       -17.6078503278        1.6831385015        5.7317605640
 C       -18.9221967034        3.1947720588        4.3022525145
 H       -16.2903995458        4.7732241746        4.1010530409
 H       -14.8398804961        3.9030789428        3.5851334998
 H       -15.5655020870        3.8214742710        5.2301791779
 H       -19.4906865352       -0.6913229840        4.8591079017
 H       -17.8065339578       -0.8920800987        4.8128841404
 H       -19.7294404967       -1.2507898523        2.4839567044
 H       -19.3269604638       -2.5303126790        3.6034552546
 H       -17.6170273969       -2.9362940533       -1.9306590039
 H       -16.1744921360       -3.2041349238       -1.1473809402
 H       -16.8746467835       -0.4439182518       -2.1584207953
 H       -16.0690016309       -1.5859243842       -3.2099370910
 H       -11.9490197070       -2.5351131337       -4.3776298712
 H       -13.3857548096       -1.7916879749       -5.1399908166
 H       -14.5121015354       -3.9397387859       -5.2909279919
 H       -13.1710623329       -4.6991019776       -4.3610945109
 H       -12.1309507228       -3.4071552125      -10.0403244680
 H       -11.1504615584       -2.8976434579       -8.7136730819
 H       -12.5846792130       -0.6796518998       -8.6931770708
 H       -13.1584313952       -1.1711130904      -10.2538918474
 H        -7.8566929340        0.2644018333      -10.0780974362
 H        -7.9633790022       -0.6876877617       -8.7789237409
 H        -7.7989984650        1.3320563385       -7.1081564713
 H        -7.5538546320        2.3098365168       -8.5466128594
 H        -3.6610652248        1.1613919376      -11.0776291131
 H        -3.9158169217        0.1992767239       -9.5705773505
 H        -1.5943458063       -0.0671022202       -9.8796950366
 H        -1.3748518657        1.4281279121       -9.0798705912
 H         2.6346541405        1.0173665813      -12.4085874919
 H         1.8345892723       -0.1839598933      -13.5977390068
 H         1.8161162441       -1.8944764440      -12.1079280966
 H         2.5813040209       -0.8680684758      -10.8368057223
 H         7.1213114205       -2.8003731643      -13.9270209832
 H         6.8695761979       -1.2907255804      -13.0918042720
 H         8.6659840237       -1.0964194070      -14.6673837094
 H         7.5110447253        0.1342883498      -14.6916320280
 H         9.4314505530        0.8344799827      -16.6050203313
 H         9.3279857433        1.8645089373      -18.0596596037
 H        11.6528911178        1.0192453881      -17.9922834630
 H        10.7842764754        0.6548752107      -19.3801437389
 H        11.0888702402       -2.0455102852      -21.7075084447
 H         9.5971533951       -2.1619924294      -20.6104610039
 H        10.5795320677       -4.8570789131      -21.5171201383
 H         9.8681248454       -3.7917976088      -22.8281968007
 H         9.1869234809       -7.4834572774      -20.5527308143
 H         7.7182094769       -8.5132190705      -20.7694574373
 H         8.6570236828       -9.0792752869      -18.7382186678
 H         7.0705582907       -8.2192705213      -18.3780357750
 H         8.5844281485       -6.2908834300      -13.3981610031
 H         7.5264871321       -7.5068164990      -14.1705438138
 H         7.1100690145       -5.8635526665      -13.9413030226
 H         8.3218821710       -8.9689946409      -16.2964573050
 H         9.5689404121       -8.5448093246      -14.9643087068
 H         9.9845422717       -9.1472587771      -16.6677254048
 H        10.5855864575       -5.5251491720      -17.0160680172
 H        11.1346343693       -7.1912930051      -17.5719841563
 H        11.2506464017       -6.7414542180      -15.9062928915
 H         5.7984744844       -5.6955414396      -22.4876358051
 H         6.6654511116       -4.2850117081      -23.1503850165
 H         5.8967856417       -4.4462255714      -21.4042415326
 H         7.8804973034       -7.0917296916      -23.2841791305
 H         9.5406504651       -6.6306353423      -22.4927773138
 H         8.6513083193       -5.5502680581      -23.6740605815
 H        12.6041645608       -0.4071942255      -20.8423701582
 H        13.7838346804       -1.7040025485      -20.6162217218
 H        13.7040284210       -0.2755518608      -19.5813785734
 H        12.6532957321       -2.9495734417      -17.2166588805
 H        13.7359694044       -1.7507569605      -17.4313538042
 H        13.6537292007       -3.2691021105      -18.5973814154
 H         4.9503249884       -0.4849260119      -18.4456623248
 H         6.2007629084       -1.7939206943      -18.7035928619
 H         6.3121259942       -0.2004934589      -19.5589212821
 H         7.2805700053        1.9647775303      -16.6697354713
 H         5.8252990181        1.0473093791      -16.1121780893
 H         5.8392211016        1.7260201474      -17.7282522996
 H         4.0926311278       -4.2431034531      -12.0363696212
 H         5.5730507845       -3.2422811265      -12.0596105157
 H         5.1618969989       -4.4782002339      -13.3661524882
 H         1.9983189000       -2.7291554292      -13.6783206836
 H         2.7885902918       -3.9285881667      -14.4931190198
 H         2.7421734690       -2.2355794377      -14.9685541547
 H         0.3761445454        3.7833192146      -12.0945996228
 H         0.4589150459        2.5905026111      -13.3197076681
 H         1.8104531907        2.8197403154      -12.3552323648
 H         1.9167238431        1.8439327171       -9.9111728699
 H         0.2850026136        1.4582017695       -9.2407011958
 H         0.5997101831        3.0918149949       -9.5036146499
 H        -6.3488566344        3.2461235375       -7.3461195951
 H        -4.8784234402        4.1246980205       -7.5994385176
 H        -5.0394605973        3.3027280580       -6.0497489412
 H        -4.2316855465        0.5815189283       -6.1596463664
 H        -3.2184954206        2.0317660546       -6.2716263788
 H        -3.0138834340        0.6791485232       -7.2726069950
 H        -9.5283209664        2.3926014920      -10.7728313689
 H       -10.6508483578        1.6854965032      -11.9404595528
 H        -9.1575318925        0.7514463375      -11.4538982124
 H       -12.6534547925        1.8634366418      -10.3453904520
 H       -11.6418629327        2.8060977939       -9.2486485647
 H       -12.3692474970        1.1821758533       -8.7572209106
 H       -11.1381539801       -5.2716342797       -8.6801315435
 H       -12.7207071884       -5.6688684905       -9.3857731144
 H       -12.1812885004       -6.5417901205       -8.0569916193
 H       -14.6256826602       -5.8410793573       -6.8923614003
 H       -14.9396471324       -5.5568917583       -8.4953473210
 H       -15.1817225732       -4.2978230915       -7.4607718214
 H       -13.7589049545        1.2247842098       -2.9487562253
 H       -14.4486868850       -0.0146524086       -4.0569242334
 H       -12.6909413723        0.2353884232       -3.9153384397
 H       -11.9206836460       -0.0012488190       -1.6261758184
 H       -11.5796347072       -1.6508893840       -2.0644396373
 H       -12.3806234748       -1.3484414310       -0.5725722267
 H       -16.5269846780       -4.6524353379        1.8498578821
 H       -15.5356997120       -3.0855768702        1.5629238659
 H       -15.9746491530       -4.3808225245        0.3446207627
 H       -18.8548418200       -4.5437007914        1.8489893254
 H       -18.8474500712       -4.5517381988        0.0581882514
 H       -19.7226190902       -3.2421179254        0.9138505697
 H       -16.8711336901        0.8465050438        5.7012126856
 H       -18.5723451766        1.2788956633        6.2335159110
 H       -17.0811663562        2.4647494967        6.1853916728
 H       -18.3867081874        4.1465180706        4.5569709152
 H       -19.8837693554        3.0324667141        4.8645982560
 H       -19.1335670815        3.4558206785        3.2907627915
 Na      -16.8200021949        0.5709450198        0.8398317624
 Na        9.1510972233       -3.6830730443      -17.9411109721
