232

 C       -15.7751089814        3.7172520114        3.9837667166
 C       -16.6494236536        2.6339309125        3.4344301229
 O       -16.3462354690        2.2356806138        2.3367413208
 C       -17.9019527234        2.1276124287        4.2639138649
 C       -18.5197134193        0.8875959381        3.4895741361
 O       -18.7051863193        0.9924379634        2.2855490088
 C       -18.7874729379       -0.4923157251        4.1333747372
 C       -18.9861522123       -1.7831842665        3.1877786193
 C       -17.6893925176       -1.9664466680        2.4091137519
 O       -16.7334928814       -1.1610566835        2.5677130891
 C       -17.6073862457       -2.9433018730        1.2444423664
 C       -17.6456755712       -2.0393589343       -0.1516013287
 O       -18.2887813916       -1.0090707753       -0.0636372754
 C       -16.9101576359       -2.4453260260       -1.4070684628
 C       -16.2852644693       -1.2877342036       -2.1048538702
 C       -14.9951146679       -0.7598672908       -1.5272500305
 O       -14.9362836016       -0.0490168827       -0.5642419352
 C       -13.6271797410       -1.0025277817       -2.3452835624
 C       -13.6337417421       -2.4031454135       -3.0844512912
 O       -14.2136407856       -3.2897122231       -2.5620074051
 C       -13.2019000025       -2.5396793805       -4.5003385302
 C       -13.4295869033       -3.9762451425       -5.0691064718
 C       -12.4614702928       -4.4155539427       -6.2149957823
 O       -11.3086715239       -4.2582779177       -6.1124230767
 C       -13.1339615377       -4.5685916797       -7.6632997914
 C       -13.1286951814       -3.0722589479       -8.1690405810
 O       -14.0057251028       -2.3565376377       -7.6602654487
 C       -12.0781912964       -2.5003859071       -9.1622758986
 C       -12.4019218061       -1.0972896830       -9.5528975254
 C       -11.0714067121       -0.5884183476      -10.2028271072
 O       -10.3270773641       -1.3124903473      -10.8437442918
 C       -10.6829828001        0.8991188993       -9.9223754954
 C        -9.7680584848        0.7058866475       -8.6343450611
 O       -10.1915889626        0.6426193168       -7.5108415152
 C        -8.2630948953        0.3468754572       -8.8844106566
 C        -7.3090251995        1.3078037890       -8.1361221121
 C        -5.8603706353        0.8429267701       -8.1593281902
 O        -5.5792539178       -0.3160865229       -8.4033437250
 C        -4.8365924028        1.8979712507       -7.6850710373
 C        -3.9692590997        2.4288925116       -9.0788467845
 O        -3.7490558145        3.5392794735       -9.4899933855
 C        -3.4468739356        1.2020054088       -9.9097047468
 C        -1.9310639555        0.9612983296      -10.0564482838
 C        -1.2973897583        1.7603455979      -11.1565511792
 O        -2.0623771113        2.1377594053      -12.0859251818
 C         0.2348013849        1.7141019227      -11.4903840979
 C         0.6488614069        0.3520754203      -11.9341979312
 O        -0.0582171500       -0.6630094892      -11.8427485027
 C         2.1496693341        0.1286270082      -12.3552741003
 C         2.6588536085       -1.2700528025      -11.7758464373
 C         3.9838626092       -1.2835017655      -12.5138674331
 O         4.9000127921       -0.6324039193      -12.0407954141
 C         4.2528387816       -2.3687170291      -13.5606355833
 C         5.3235008366       -1.8056568879      -14.4824797398
 O         5.1314390643       -1.3644778673      -15.5925912066
 C         6.7731941774       -1.7347113220      -13.9339962328
 C         7.5706632260       -0.8182762178      -14.9900444712
 C         7.2425360127       -1.2506704928      -16.4210566116
 O         7.4424422668       -2.3550250155      -16.8076282805
 C         7.0509833164       -0.2386224501      -17.6358238234
 C         8.3686682703        0.0211243857      -18.4008670462
 O         8.5505486328       -0.4415755159      -19.4995281734
 C         9.4974430291        0.7778088432      -17.7112571851
 C        10.8497258233        0.4548587178      -18.4175218491
 C        11.2132416893       -1.0549162963      -18.1680409834
 O        10.5033703194       -1.7778956225      -17.4864479924
 C        12.3544318833       -1.8066643666      -19.0663985074
 C        11.5256099112       -3.0460631187      -19.8533146682
 O        11.7419453803       -4.1639640821      -19.5392773066
 C        10.5977082554       -2.6879981334      -20.9455885709
 C        10.0489087726       -3.9009457313      -21.6559009167
 C         8.6702300725       -4.4341852511      -21.0176782007
 O         8.1525723229       -3.7130610989      -20.1603315376
 C         7.7868645098       -5.4840381582      -21.8133596331
 C         7.3349850968       -6.4583050385      -20.5660517233
 O         6.2814261874       -6.2805802678      -20.0244822060
 C         8.1520266365       -7.7242327738      -20.2956494660
 C         7.9855788426       -8.1820449813      -18.7532318902
 C         8.4710030581       -7.0193967345      -17.9069191669
 O         8.4446412639       -5.9049373107      -18.3512531460
 C         9.2103227989       -7.2003126796      -16.4372467586
 C         8.5561481164       -6.0640821143      -15.5462691694
 O         8.5733397844       -4.9001532786      -15.8935853393
 C         7.8435035462       -6.4897686645      -14.2313893416
 C         9.2100075852       -8.5677627961      -15.8475124759
 C        10.7691615560       -6.6892858986      -16.6586844443
 C         6.5216842857       -4.8087383351      -22.3102863957
 C         8.4453525922       -6.2324670944      -22.9997302315
 C        13.1103769171       -1.0123970847      -20.1206996309
 C        13.4126483887       -2.4993120573      -18.1614733772
 C         5.9656258241       -0.8483334459      -18.6590953636
 C         6.5016189388        1.1802333014      -17.0981223325
 C         4.9077000285       -3.5428591615      -12.7626216519
 C         2.9924001202       -2.9484140069      -14.3579987476
 C         0.6336257208        2.8736967723      -12.5615404226
 C         0.9436406629        2.0201798912      -10.1829595827
 C        -5.3907961336        3.1589229785       -6.9255561313
 C        -3.8444577125        1.1062642349       -6.7835410236
 C        -9.8541224978        1.5165277272      -11.1077560263
 C       -12.0072350767        1.6706762888       -9.4693859776
 C       -12.1722131298       -5.4011291316       -8.4699305869
 C       -14.5756240530       -5.2452673535       -7.5643766703
 C       -13.5970218797        0.2072925355       -3.2761022665
 C       -12.3084635152       -1.0158945362       -1.3255524814
 C       -16.2706805709       -3.7570223720        1.2620233810
 C       -18.8097129591       -3.8690686123        0.9687723273
 C       -17.5204908601        1.7503252788        5.7429472615
 C       -18.9947656003        3.3023156197        4.1574629487
 H       -16.3138991730        4.5543023790        4.4748924995
 H       -15.0676817433        4.0990365389        3.2835243552
 H       -15.3329619142        3.2913047964        4.9045053431
 H       -19.6644154552       -0.3985411576        4.7544760775
 H       -18.0463438976       -0.8497000710        4.8513637419
 H       -19.7783350804       -1.6856043895        2.3821460520
 H       -19.2443702236       -2.6397006509        3.8472563259
 H       -17.5064514967       -2.9782032442       -2.1282022899
 H       -16.1305147497       -3.1668648787       -1.1204692154
 H       -16.9888062053       -0.4662697614       -2.2760200546
 H       -16.0346605681       -1.6561301419       -3.0745751503
 H       -12.1252708915       -2.2599673386       -4.4797885022
 H       -13.7277117177       -1.7955369293       -5.0869179771
 H       -14.4223787179       -4.0339898030       -5.2975157353
 H       -13.2989686076       -4.6672035587       -4.2428448498
 H       -11.9830570663       -3.1238832027      -10.0258661314
 H       -11.1129004497       -2.5957575101       -8.5574354585
 H       -12.8256663182       -0.5957253382       -8.7142294293
 H       -13.2312736387       -1.1266615902      -10.3416248706
 H        -7.9696778597        0.1501719676       -9.8901385437
 H        -8.1599666939       -0.6649417946       -8.5754729039
 H        -7.5112917988        1.5714874694       -7.1051098822
 H        -7.5374135521        2.2745129749       -8.7140762465
 H        -3.8645373506        1.2767776416      -10.9379562875
 H        -3.8621561162        0.2844703233       -9.4544791479
 H        -1.7563096488       -0.0850014507      -10.3560695617
 H        -1.3564827869        1.0187534291       -9.1821631836
 H         2.7670506356        0.9285796143      -11.8841745460
 H         2.2017513461        0.0200324364      -13.4442588788
 H         2.0525199654       -2.1568521828      -12.0923050376
 H         2.8860461111       -1.0672621934      -10.7381901907
 H         7.1633395487       -2.7132269799      -13.9300708669
 H         6.8194405844       -1.3580076037      -12.9315240315
 H         8.6465282837       -1.0162857820      -14.8761662098
 H         7.5282214291        0.2526578007      -14.8497934156
 H         9.5350962443        0.5579236519      -16.6348336845
 H         9.3192468447        1.8605124409      -17.8473151478
 H        11.6086564395        1.1504161463      -18.0921288811
 H        10.8378899008        0.6430750385      -19.4780759497
 H        11.1410654225       -2.0418195520      -21.6081467436
 H         9.7017731129       -2.2534557448      -20.5371301479
 H        10.7379608616       -4.7544569264      -21.5122315858
 H         9.7822267310       -3.8300691807      -22.7084636425
 H         9.1597932119       -7.4966008585      -20.3722735781
 H         7.8428975861       -8.5935364613      -20.8692416598
 H         8.6472214941       -9.0493421322      -18.7132789225
 H         6.9620881462       -8.4360565973      -18.4133255739
 H         8.5307914035       -6.3057164016      -13.3906061650
 H         7.4146520378       -7.5748553788      -14.2809670086
 H         7.0103298016       -5.8701185206      -13.8875521591
 H         8.2188294573       -8.9633521249      -15.6049808483
 H         9.9194677211       -8.6076328484      -15.0150880577
 H         9.4155384979       -9.2644184345      -16.6987689426
 H        10.8776658878       -5.6516399331      -16.8422200971
 H        10.9607024761       -7.2448947802      -17.5127373705
 H        11.4351024594       -7.0946361564      -15.9180527783
 H         5.8567039069       -5.4910506269      -22.8813598904
 H         6.8929300353       -3.9606299858      -22.8671669318
 H         5.9801274339       -4.5904635487      -21.4402361103
 H         7.7962959127       -7.0835262957      -23.2111800068
 H         9.4861056426       -6.5300532503      -22.7480855500
 H         8.3633164509       -5.5677182260      -23.9225875338
 H        12.4655192535       -0.5020927256      -20.7449684823
 H        13.6399512209       -1.6660116564      -20.7469422473
 H        13.7550588672       -0.3051451788      -19.6061874447
 H        13.1484212521       -3.5710559004      -17.9178894206
 H        13.4891637265       -2.0212495779      -17.2683643556
 H        14.1967220905       -2.6226954935      -18.8259733836
 H         4.9453153740       -0.6300375328      -18.2675469127
 H         6.0920081339       -1.8359412193      -18.9892448930
 H         6.1216751904       -0.1805688999      -19.4179402822
 H         7.2805215564        1.8924742600      -16.8362395010
 H         5.7982363800        1.0914314948      -16.2261421204
 H         5.8684319824        1.6738394660      -17.9245645545
 H         4.2934460201       -3.9130286308      -11.8733293235
 H         5.8005736837       -3.1043340366      -12.2740158841
 H         5.1334752910       -4.4396729876      -13.3228615573
 H         1.9952138754       -2.6958214234      -13.9555118293
 H         3.0020945215       -4.0354747523      -14.3965547749
 H         2.8291222571       -2.5999494802      -15.3559558383
 H         0.3535323991        3.8419178847      -12.3085710335
 H         0.2755738161        2.7069292580      -13.5667367988
 H         1.7015749666        2.9085811237      -12.6733293218
 H         1.9849868746        2.0226984610      -10.3979180951
 H         0.7628037137        1.2774770668       -9.3830180192
 H         0.5317519125        2.9469784865       -9.7121689824
 H        -6.4526065708        3.1275903569       -7.1073731234
 H        -4.9255342511        4.0888270754       -7.3358601492
 H        -5.1635934994        3.1044858593       -5.8476660970
 H        -4.2243241502        0.4810993961       -6.0129330207
 H        -3.2300831782        1.8070685892       -6.3019954710
 H        -3.1371740115        0.4878871228       -7.3518820590
 H        -9.2929764971        2.3977982114      -10.7144252606
 H       -10.5480497317        1.8658730569      -11.8504077332
 H        -9.1537730798        0.6745951540      -11.4456872549
 H       -12.5267349783        1.9725716446      -10.3681770210
 H       -11.7191212430        2.5332136809       -8.9981933314
 H       -12.6671052748        1.0338411685       -8.9200145666
 H       -11.1380396827       -5.0293764294       -8.3139963072
 H       -12.4406425162       -5.3692656736       -9.5253491030
 H       -12.1631628580       -6.4139217084       -8.2171660238
 H       -14.4498084559       -6.0466475180       -6.7958204447
 H       -14.8036319000       -5.7950850872       -8.4296627341
 H       -15.4518177938       -4.6582974860       -7.4860973517
 H       -13.6984800595        1.1648008750       -2.7156438595
 H       -14.4300245364        0.2379722089       -3.9319936292
 H       -12.7390685843        0.2796597613       -3.8649792521
 H       -11.9989821458       -0.0593381460       -1.0564462662
 H       -11.4279943052       -1.5750989112       -1.7275640786
 H       -12.6108850086       -1.5881169524       -0.4292997141
 H       -16.4310164567       -4.7079083534        1.7702131838
 H       -15.4461582939       -3.1616901000        1.6375484335
 H       -16.1684820517       -4.2561520558        0.2569706977
 H       -18.8886285061       -4.7277643246        1.7012012497
 H       -18.7198383686       -4.3223785712       -0.1282429911
 H       -19.7637106379       -3.2736514720        0.9459327809
 H       -16.9330971690        0.8276954330        5.8357084739
 H       -18.3871135036        1.5989861437        6.2690876074
 H       -16.8723321262        2.5669809587        6.0469147081
 H       -18.6868303414        4.2826811239        4.3892575294
 H       -19.9030524782        2.9647157966        4.6528861337
 H       -19.2431423523        3.4240304127        3.0649708619
 Na      -16.8146227697        0.4831857530        0.9428057170
 Na        9.0216186404       -3.5205125258      -17.9232221273
