232

 C       -15.7563338991        3.6739079363        3.9495259848
 C       -16.6286025443        2.6374833662        3.3324151457
 O       -16.3684305810        2.1617420573        2.2410391412
 C       -17.8569549025        2.0623734058        4.1233741096
 C       -18.4542029182        0.8518082205        3.4668797067
 O       -18.6494125837        1.0434901673        2.2631460319
 C       -18.9153872735       -0.3727111734        4.2477566923
 C       -18.9444503259       -1.6404124404        3.3063498013
 C       -17.7578920490       -1.7923202616        2.3938666468
 O       -16.7905379675       -1.1252683295        2.5850730988
 C       -17.6740038836       -2.9036514561        1.1556513830
 C       -17.5585197330       -2.0286388898       -0.1244207018
 O       -18.2474787678       -1.0047499769       -0.1678085414
 C       -16.9339414411       -2.4843324349       -1.4546605961
 C       -16.3227392180       -1.2212044501       -2.2139687826
 C       -14.9824397236       -0.7906839251       -1.5751668523
 O       -14.9647439076       -0.1838637270       -0.5051446221
 C       -13.6716109622       -1.0357085019       -2.3375330486
 C       -13.7197935016       -2.3915895854       -3.0733235582
 O       -14.1920747706       -3.3290919847       -2.4541654881
 C       -13.2371766570       -2.5151099940       -4.6070777111
 C       -13.4503873773       -4.0023263138       -4.9765598066
 C       -12.5239049829       -4.2171926253       -6.2063938455
 O       -11.3079687514       -4.2905579699       -5.9918769735
 C       -13.1057652512       -4.6420422989       -7.6448553703
 C       -13.3124360226       -3.0682766040       -8.1726145847
 O       -14.1466733360       -2.2635798783       -7.7306262333
 C       -12.1529477409       -2.5892598732       -9.0169255537
 C       -12.3708060728       -1.1717803763       -9.5809728299
 C       -11.1040235467       -0.5498471623      -10.1447316394
 O       -10.3889757922       -1.2209897256      -10.8462511303
 C       -10.6496806833        0.8931414166       -9.7855304055
 C        -9.6996702313        0.5573991207       -8.4602589996
 O       -10.3209428376        0.5883809220       -7.3995011458
 C        -8.3136692166        0.2311064430       -8.7419364379
 C        -7.4294173630        1.3922884832       -8.1848367113
 C        -5.9087176354        0.9172396653       -8.1430009181
 O        -5.6355883464       -0.2222748988       -8.4819408869
 C        -4.7568555599        1.9052344629       -7.7484325144
 C        -3.9221746315        2.2829672187       -9.0435137632
 O        -3.8818256790        3.4581278148       -9.2580948873
 C        -3.4222964913        1.1710259490       -9.9524347467
 C        -1.9231190371        0.9378488183      -10.1401510202
 C        -1.3903843063        1.7424562153      -11.3846771595
 O        -2.1103718866        2.2016117432      -12.2327954700
 C         0.2199221081        1.7619638561      -11.5439330456
 C         0.6252153852        0.2827518304      -11.8674571252
 O        -0.1486216158       -0.5772732038      -11.7650792593
 C         2.1444719172        0.1374596693      -12.1694266367
 C         2.7160042948       -1.2330450796      -11.7409824661
 C         4.1336783828       -1.3006899606      -12.4307010266
 O         4.9605905994       -0.4684905675      -12.2529543966
 C         4.4101653876       -2.3826233469      -13.6262921245
 C         5.3718476316       -1.7601893100      -14.5514777441
 O         5.1226852128       -1.3319770594      -15.6763564413
 C         6.8545093052       -1.6662297932      -14.0427988437
 C         7.6551173810       -0.6689289990      -15.0955261038
 C         7.3465092330       -1.2016613163      -16.4892185174
 O         7.4796121240       -2.4035281328      -16.7638840054
 C         6.9977102647       -0.1953128108      -17.7139866471
 C         8.3891710586       -0.0754793011      -18.4270070260
 O         8.4649392193       -0.5425876171      -19.5587396414
 C         9.6408975478        0.6950073032      -17.6827756789
 C        11.0237793985        0.4008555567      -18.4592786906
 C        11.3141076707       -1.0931198717      -18.2820901419
 O        10.6175081120       -1.6498453365      -17.4535392871
 C        12.4304968552       -1.9275488096      -19.0991471451
 C        11.5935976976       -3.0904540980      -19.8454200006
 O        11.6910726176       -4.2800671656      -19.5650083142
 C        10.5964517330       -2.6938362822      -20.9581846572
 C        10.0082771701       -3.9263457564      -21.6454112967
 C         8.6244025868       -4.3350967714      -21.0595958424
 O         8.1591820785       -3.7302261501      -20.1495858841
 C         7.7338181612       -5.4886239643      -21.7199518965
 C         7.2684113469       -6.6233442606      -20.6496594333
 O         6.2886238577       -6.4676749017      -19.9790287264
 C         8.2245800026       -7.8900208768      -20.3004495585
 C         8.0202513373       -8.1827300207      -18.7487076518
 C         8.5555078469       -7.0275315972      -17.8454832413
 O         8.4412016663       -5.8768970560      -18.2554514760
 C         9.1852566425       -7.2548849471      -16.4453726031
 C         8.5555289848       -6.0610984293      -15.5878048194
 O         8.5928237713       -4.8780323680      -15.8612505078
 C         7.7868881307       -6.4302174803      -14.3158796883
 C         9.1338565415       -8.6571380446      -15.7607815281
 C        10.7118031656       -6.8337493963      -16.5687186532
 C         6.5642993705       -4.6257779604      -22.3430880852
 C         8.4339292849       -6.1901886712      -22.9323021278
 C        12.9449529989       -0.9272647970      -20.1152780602
 C        13.5424744420       -2.4650897665      -18.1786722495
 C         5.9773993098       -0.9132199992      -18.5390123514
 C         6.4855758196        1.1574806026      -17.1503894539
 C         4.9365396809       -3.6076368663      -12.7847638468
 C         3.2443524563       -2.8234504308      -14.5176293707
 C         0.4235007771        2.8250370875      -12.7012768042
 C         1.1383230431        2.0815848983      -10.2656842024
 C        -5.3496858230        3.0345284054       -6.8708397677
 C        -3.8118312655        1.0715077620       -6.7960093234
 C        -9.9628593950        1.5561108731      -10.9846563672
 C       -11.8267188173        1.8679240975       -9.5258000483
 C       -12.0926824016       -5.4088303745       -8.5250364523
 C       -14.4519698865       -5.2775113217       -7.5755295850
 C       -13.4702142948        0.1866199178       -3.2915735819
 C       -12.5199459044       -1.0220221760       -1.2152254206
 C       -16.2856871693       -3.7894656440        1.4947945756
 C       -18.8415494138       -3.8981068499        1.0481485277
 C       -17.4870697006        1.9268441558        5.6654055672
 C       -18.9986303307        3.2268472633        4.0465363096
 H       -16.3147015898        4.1482357834        4.7660507543
 H       -15.3882012649        4.4552467542        3.2971395586
 H       -15.0024829282        3.1705478110        4.5830764331
 H       -19.9531163793       -0.1153149172        4.6351988834
 H       -18.3684424747       -0.6484939807        5.1135412818
 H       -19.8014901543       -1.6728388157        2.6100139383
 H       -19.0184007404       -2.6084571809        3.9491597288
 H       -17.8614909341       -2.7324326990       -2.0374886883
 H       -16.3390941523       -3.4244599900       -1.4299434945
 H       -17.0442247199       -0.3952977625       -2.0093375541
 H       -16.2987496331       -1.3165759488       -3.2754369584
 H       -12.1899911048       -2.2202623271       -4.5965980040
 H       -13.7828568125       -1.8948362549       -5.3589754506
 H       -14.4861939983       -4.1370997484       -5.1565863458
 H       -13.2190656656       -4.6585765340       -4.1693964108
 H       -11.9824321866       -3.3567782772       -9.7993276664
 H       -11.3283701903       -2.7082122392       -8.2641706718
 H       -12.6372056759       -0.5788253446       -8.7009993491
 H       -13.2565191788       -1.1276948717      -10.2561327267
 H        -8.1568078371       -0.1004571647       -9.7541108629
 H        -8.0329668328       -0.6713556005       -8.2950751459
 H        -7.6042017943        1.6723911452       -7.1684293657
 H        -7.6658112977        2.2831810022       -8.7417722301
 H        -3.8877352413        1.3945837258      -10.8632048703
 H        -3.8560648771        0.1927748165       -9.5791671342
 H        -1.6495303092       -0.0820009587      -10.1257791932
 H        -1.3964713410        1.3280258856       -9.2809245618
 H         2.6342144939        0.9178665970      -11.5187706899
 H         2.3038892007        0.2843243790      -13.2409035912
 H         2.1306308767       -2.0551842252      -12.1861693328
 H         2.8084979279       -1.0893956241      -10.6300208072
 H         7.3058534803       -2.6136738390      -13.9387467338
 H         6.7792089480       -1.2179340610      -13.0522531109
 H         8.7058692557       -0.5522740433      -14.9007206705
 H         7.2669233799        0.3491167221      -15.0983604755
 H         9.7294925348        0.3230436887      -16.6907297411
 H         9.4637794472        1.7945840454      -17.6889839307
 H        11.8009289501        0.9219025765      -17.9334832321
 H        11.0773435498        0.8611555458      -19.4462873955
 H        11.2080714198       -2.2053028050      -21.7411085293
 H         9.7800387395       -2.1128943343      -20.6041567239
 H        10.6442804826       -4.7550093429      -21.4105358675
 H         9.8824559671       -3.8916936176      -22.6943585672
 H         9.2574749520       -7.5839520452      -20.4773780135
 H         7.8997427565       -8.8232168278      -20.7179324629
 H         8.4348145760       -9.1531442819      -18.5356520603
 H         6.9295161890       -8.1966838202      -18.6457436731
 H         8.5061954135       -6.4117932850      -13.4091614109
 H         7.1715907968       -7.3334798484      -14.3907916417
 H         7.0872994714       -5.6189829093      -13.9387431343
 H         8.1679860639       -8.9280529645      -15.2426483166
 H         9.9148700595       -8.6084218285      -14.9807949040
 H         9.0687119853       -9.4379768251      -16.4728781344
 H        10.8542346968       -5.7857610775      -16.8182106233
 H        11.0301959789       -7.4331993810      -17.4300522534
 H        11.2503847208       -7.2088318431      -15.7255401704
 H         6.0006105041       -5.2207660255      -23.1037744969
 H         7.0814344657       -3.7755706355      -22.7174402783
 H         5.8776326335       -4.3595146740      -21.5494568588
 H         7.8115831283       -7.0050375424      -23.1852053276
 H         9.4502062532       -6.4984327480      -22.6693902051
 H         8.4236893018       -5.5055382653      -23.8021544321
 H        12.1225837244       -0.4278412673      -20.6770785604
 H        13.4844296978       -1.3812970420      -20.9085540837
 H        13.5500008630       -0.2311595174      -19.5210585130
 H        13.6847038639       -3.5613328157      -18.2354129667
 H        13.2513335380       -2.1744516973      -17.1644667282
 H        14.4573278888       -2.1099244758      -18.6021667899
 H         5.1577634822       -1.1515527637      -17.9445400723
 H         6.4572920077       -1.7626213333      -18.9478081194
 H         5.6937200569       -0.2909698803      -19.4219879139
 H         7.2918848890        1.6566166950      -16.6585676149
 H         5.5729772749        1.0977829459      -16.5519997932
 H         6.2158504132        1.8342922177      -18.0186058892
 H         4.1886120972       -3.8127675378      -12.0357692480
 H         5.7857323786       -3.2691830409      -12.1392755391
 H         5.2181297657       -4.5392930051      -13.2797785620
 H         2.2197765246       -2.5206823268      -14.2142469134
 H         3.1899421060       -3.9817482194      -14.4828105883
 H         3.2206219073       -2.5721321816      -15.5706146368
 H         0.1944084374        3.8470371235      -12.4635022644
 H        -0.1698329642        2.5282254218      -13.5437710350
 H         1.4582080170        2.8660938078      -13.0450990509
 H         2.1090747512        2.4033658206      -10.7176198175
 H         1.4322488772        1.1968046314       -9.6788495682
 H         0.7129805378        2.7465436720       -9.5907537512
 H        -6.4256153466        3.1266712109       -7.0570813867
 H        -4.7349329038        3.9928615969       -6.9745855961
 H        -5.2190035578        2.6843091553       -5.8553645094
 H        -4.3482863470        0.7497988541       -5.8767837765
 H        -2.9469298986        1.5825249002       -6.3206073149
 H        -3.4015884240        0.1829848355       -7.2791300374
 H        -9.2262479517        2.3637413658      -10.6880351548
 H       -10.7632022577        2.0822803350      -11.5635297173
 H        -9.4907611836        0.7250941250      -11.4855377072
 H       -12.3310684971        1.9841465056      -10.4495058354
 H       -11.3099234401        2.8201099148       -9.3720323820
 H       -12.5894320847        1.5805123585       -8.7995170450
 H       -11.1194248215       -5.1202324220       -8.2159331132
 H       -12.2340029017       -5.2493023685       -9.6101580075
 H       -12.1205108414       -6.4902385052       -8.4031296033
 H       -14.5120663029       -6.1933425687       -6.9224150991
 H       -14.6654192607       -5.6351762123       -8.5799061895
 H       -15.3265329080       -4.6037712867       -7.4543009352
 H       -13.3872370099        1.0587089705       -2.6840887956
 H       -14.2721428523        0.4214045223       -3.8687175039
 H       -12.5818733565        0.1360170023       -3.8952690110
 H       -12.5176821911       -0.0702640804       -0.6157085963
 H       -11.5263048546       -1.2021788192       -1.5835752961
 H       -12.7720122650       -1.8450784270       -0.5452637699
 H       -16.4137359232       -4.3470400913        2.3743480275
 H       -15.4607402150       -3.0583427649        1.6233576297
 H       -16.1304600486       -4.6087679569        0.7543835883
 H       -18.7560030499       -4.6016727903        1.9551512574
 H       -18.8483926969       -4.4809337340        0.1312438836
 H       -19.8384358581       -3.3748360589        1.1014118780
 H       -16.8811310268        1.0941868975        5.8883775481
 H       -18.3708940795        1.7230983932        6.1864724174
 H       -16.9792812445        2.8924697564        5.8628435585
 H       -18.6167648508        4.1322784294        4.4574897014
 H       -19.8028750395        2.8704662449        4.6169121493
 H       -19.3996530276        3.5238631419        3.0646966166
 Na      -16.7625383787        0.4055737090        0.9759257223
 Na        8.8908660695       -3.4599580024      -17.9198316250
