232

 C       -15.6330963533        3.8106020087        3.9247229282
 C       -16.5577671989        2.7292587373        3.2017929332
 O       -16.1866073335        2.2344204031        2.1581824630
 C       -17.8475748490        2.1439985749        4.0055006163
 C       -18.5121770797        0.8736832914        3.3205943726
 O       -18.7857218534        0.8603275099        2.1420043949
 C       -18.9228039277       -0.4183227949        4.2086129346
 C       -19.0496643700       -1.6082695300        3.3228864676
 C       -17.7572557414       -1.7502238748        2.4261298523
 O       -16.7432140071       -1.0802594918        2.7869557027
 C       -17.6895588326       -2.7856814642        1.2723286362
 C       -17.6090568116       -1.9562826956       -0.1166882732
 O       -18.2428789489       -0.9151604539       -0.2029049896
 C       -16.9204491498       -2.5071976195       -1.3750309357
 C       -16.4684755841       -1.3553689630       -2.1591074309
 C       -15.1649803748       -0.7463266743       -1.6201068729
 O       -15.1694872641       -0.4230398315       -0.4750862337
 C       -13.7382033865       -1.0337058676       -2.3163463769
 C       -13.8220496869       -2.4282095106       -3.0192948904
 O       -14.1497062333       -3.3357656725       -2.3046281264
 C       -13.3653237074       -2.5891547214       -4.4219046381
 C       -13.5321785663       -3.9649204787       -4.9872446688
 C       -12.5189888620       -4.3381142299       -6.0533392168
 O       -11.3316839159       -4.2940026481       -5.9632221027
 C       -13.0853511049       -4.6376022883       -7.4905693861
 C       -13.3221361318       -3.1411636907       -8.1423630693
 O       -14.3686988990       -2.5759426627       -7.9347664264
 C       -12.1856198513       -2.4260553579       -9.0509800307
 C       -12.4950250233       -0.9549603823       -9.4191526073
 C       -11.2418124617       -0.4039925158      -10.1582280851
 O       -10.5429200096       -1.0876647914      -10.8792038148
 C       -10.5991222343        1.0159930214       -9.6648699676
 C        -9.8952984414        0.6226480392       -8.3860289672
 O       -10.5553777594        0.5378422552       -7.3581670808
 C        -8.3943618690        0.2369054822       -8.4184482521
 C        -7.4600305494        1.3612110043       -8.1712255339
 C        -5.9894525988        0.7807209841       -8.1314683528
 O        -5.7872886231       -0.2914694000       -8.6458733907
 C        -4.7349769230        1.6933637490       -7.6144513352
 C        -4.0712851878        2.1946220196       -8.9555546758
 O        -3.8234512811        3.3892034933       -9.0700779747
 C        -3.5685037086        1.1827345619      -10.0080987790
 C        -2.0362023670        1.3542302453       -9.9920120806
 C        -1.5015889269        1.8120153138      -11.3159578415
 O        -2.2088237851        2.1912696298      -12.2769603025
 C         0.1013097358        1.8242255221      -11.6157864379
 C         0.6387822728        0.3037063780      -11.8314531808
 O        -0.0867384946       -0.7076082321      -11.7333795763
 C         2.2108226189        0.1746452802      -12.3055678750
 C         2.7893514432       -1.2248026656      -11.9033089112
 C         4.2026411262       -1.2430015341      -12.6008118295
 O         4.9976799444       -0.3090409897      -12.4768455060
 C         4.5297035416       -2.4096011313      -13.6758445470
 C         5.6683252044       -1.6707878758      -14.5504075689
 O         5.3202247202       -1.1879632068      -15.6143685639
 C         7.1198843173       -1.4863147114      -14.0572430154
 C         7.7875772063       -0.5622533524      -15.0232994663
 C         7.5207839074       -1.0374993864      -16.5059630488
 O         7.5821178619       -2.2193226798      -16.6263739799
 C         7.1965731674       -0.2270347373      -17.8191140577
 C         8.4797897494       -0.0973101965      -18.6495914427
 O         8.7019130217       -0.6932242616      -19.6503200824
 C         9.5964723590        0.7863101028      -17.8991239580
 C        10.9255629267        0.1811543557      -18.3480719855
 C        11.2033739802       -1.3254644364      -18.2697969169
 O        10.7895113346       -2.1165694961      -17.4277891803
 C        12.2943576424       -1.8584437512      -19.2464099983
 C        11.5780985703       -3.1159317615      -19.8473136998
 O        11.7868593124       -4.1624103857      -19.3517162438
 C        10.6897863539       -2.8297446347      -21.0446200610
 C         9.9443120368       -4.0662315156      -21.6344182193
 C         8.6113720131       -4.4286118357      -20.9167575488
 O         8.1313781951       -3.7644134434      -19.9924835324
 C         7.7509768391       -5.5176972244      -21.6098372871
 C         7.2228834681       -6.5847313565      -20.6093626025
 O         6.0742550529       -6.5254634907      -20.2716105223
 C         8.2880297710       -7.6859658793      -20.2088841528
 C         8.2282806980       -8.1462445876      -18.7599378566
 C         8.5824785616       -6.9705828871      -17.9014760456
 O         8.6311370892       -5.8937190379      -18.4050462143
 C         9.1169437466       -7.1766756371      -16.3952325370
 C         8.5488711896       -6.0376302187      -15.4961920287
 O         8.8283627993       -4.8841578453      -15.7351111695
 C         7.6909380728       -6.3900132854      -14.3246350466
 C         8.7361461413       -8.6442840406      -15.9169949360
 C        10.7052253217       -7.0234013963      -16.5126234069
 C         6.4803958370       -4.8683925207      -22.1316282547
 C         8.5192208657       -6.1934163470      -22.7696508899
 C        12.9088862745       -0.9817868669      -20.3291011612
 C        13.4188844536       -2.3710670352      -18.3763866726
 C         6.0789775035       -0.9860675415      -18.6810619376
 C         6.6363878409        1.2170331246      -17.4359706598
 C         5.0839334652       -3.6084803995      -12.9579594513
 C         3.2098407524       -2.7987010318      -14.4213559503
 C         0.4977553965        2.5184563112      -12.9905335138
 C         0.7167912416        2.6658705480      -10.3969640201
 C        -5.0816169102        3.0495902437       -6.8336070672
 C        -3.8135102258        0.7886441484       -6.8635858233
 C        -9.6000954963        1.4608136675      -10.7739195035
 C       -11.6977310764        1.9991517004       -9.2156785504
 C       -11.9814199107       -5.3953227746       -8.3556386059
 C       -14.5366598488       -5.2926620789       -7.5711512986
 C       -13.3290292667        0.1201147032       -3.2442526500
 C       -12.5834757624       -1.1935674118       -1.1831897320
 C       -16.3825035981       -3.5733513313        1.5815955579
 C       -19.0511956698       -3.7839649511        1.3648236140
 C       -17.5230232967        1.9253885042        5.4650196807
 C       -18.9279612983        3.3111162390        3.8611216333
 H       -15.7151244501        4.1004306771        4.9674161684
 H       -15.6972064854        4.7059557701        3.3172988896
 H       -14.6325965207        3.4236450492        3.8767467016
 H       -19.8313068422       -0.2012309605        4.7498108666
 H       -18.1032345849       -0.6288025659        4.9948340960
 H       -19.8970551660       -1.4042225318        2.6690397700
 H       -19.1983386904       -2.5281222521        3.7454304855
 H       -17.6366999684       -3.0621657390       -1.9733907809
 H       -16.0734040995       -3.1672909410       -1.1882938160
 H       -17.2727668390       -0.6342443142       -2.2885629744
 H       -16.2780722071       -1.7056138134       -3.2120614621
 H       -12.2936365659       -2.2935824792       -4.4358776237
 H       -13.9061938447       -1.8281826473       -4.9614376380
 H       -14.5877809574       -4.2548506063       -5.2122617820
 H       -13.2937326612       -4.5967897908       -4.0452429410
 H       -12.0232577228       -2.9647108480       -9.9672705933
 H       -11.3353937080       -2.5316007470       -8.3909549209
 H       -12.7953133162       -0.4360098066       -8.5095298126
 H       -13.3156741763       -0.9065916531      -10.1284042928
 H        -8.0317623621       -0.2695708000       -9.3267518274
 H        -8.0852742487       -0.6029363435       -7.7095585184
 H        -7.5773929381        2.0880002350       -7.3540025451
 H        -7.3430452253        2.0343493581       -9.0970736531
 H        -4.0534961047        1.5617929694      -10.9630357529
 H        -3.7884070480        0.1678872335       -9.8668115308
 H        -1.5530745557        0.3303479821       -9.8263801153
 H        -1.6572265754        1.9284292167       -9.1104537100
 H         2.6376316718        0.9212669644      -11.6788059041
 H         2.3562729264        0.4438714359      -13.3615680216
 H         2.1486410350       -2.0242972074      -12.1898721824
 H         2.9286754179       -1.0577827330      -10.8854321962
 H         7.6260066933       -2.5191984737      -14.1293539726
 H         7.1437387520       -1.1176575228      -12.9976932067
 H         8.8994082157       -0.6168932343      -14.8717501758
 H         7.4716420214        0.4577105912      -14.7685742407
 H         9.4459569107        0.7138951467      -16.7878069179
 H         9.6021320672        1.7834663936      -18.3239616060
 H        11.7962596481        0.8355412364      -18.0114871263
 H        10.8535815518        0.3800807347      -19.4348136543
 H        11.2474612390       -2.4623106561      -21.9203127628
 H         9.9705931048       -2.0359895726      -20.6483824259
 H        10.6425838768       -4.9310885589      -21.6739593159
 H         9.5437255157       -3.8511673815      -22.6519749029
 H         9.2353001078       -7.1487582574      -20.2625670104
 H         8.0910580645       -8.4921595396      -20.9780628810
 H         9.0604795022       -8.8162621190      -18.4682380545
 H         7.2547903998       -8.6111425509      -18.5721579808
 H         7.9832355312       -7.1466314652      -13.7191784218
 H         6.7120553787       -6.5534709888      -14.7902764703
 H         7.6039118621       -5.6292902477      -13.6545289655
 H         7.7838597473       -9.0614883028      -16.0983137529
 H         8.7665126571       -8.6544081491      -14.8569501019
 H         9.2686476258       -9.3922518425      -16.5082626308
 H        10.8000323537       -6.1234479103      -17.1755135885
 H        11.3407899365       -7.8524437129      -16.8537149570
 H        10.9218108064       -6.7331028795      -15.4405916917
 H         5.9241060566       -5.7237070629      -22.4831033489
 H         6.6556122334       -4.0313577164      -22.8516070941
 H         6.0078266900       -4.4596801978      -21.2259369640
 H         7.8411270609       -6.8736570020      -23.2682664454
 H         9.3125944599       -6.6962875062      -22.2950328161
 H         8.9837030571       -5.4866907827      -23.4105739406
 H        12.2212452580       -0.8831248791      -21.1689077150
 H        13.7894021688       -1.5170496565      -20.8201427265
 H        13.2597603565       -0.0256301143      -19.8693653275
 H        14.2206506497       -2.7495798698      -19.0568967438
 H        12.8923846213       -3.0600437476      -17.7050546720
 H        13.9552918537       -1.4908239916      -17.9014405305
 H         5.3425159482       -1.4570481029      -17.8968471517
 H         6.5055403214       -1.7530415169      -19.3885973644
 H         5.6219586430       -0.2560302968      -19.3302980458
 H         7.2623236885        1.7599825382      -16.7418217564
 H         5.6436465503        1.0231843288      -17.1024463232
 H         6.4959606034        1.8805044397      -18.2642260436
 H         4.3105675864       -4.1744595699      -12.3939806587
 H         5.8174542000       -3.4658535682      -12.2088634526
 H         5.6158822426       -4.1706072623      -13.7234349175
 H         2.3062943492       -2.4502164249      -13.9252146280
 H         3.0231698873       -3.8095900675      -14.5939829141
 H         3.1144165315       -2.3938108423      -15.4476829954
 H         0.3233276798        3.6083916197      -12.9064334553
 H        -0.1217370094        2.1896951930      -13.8711302772
 H         1.5673950296        2.5536126366      -13.2572512377
 H         1.3619123741        3.4234230284      -10.7421740962
 H         1.3956034476        2.1639818118       -9.7000841995
 H        -0.1916888376        3.1337315046       -9.8783741964
 H        -5.2860185770        3.7834956603       -7.5733628747
 H        -4.2214268433        3.2306810060       -6.2746292346
 H        -5.9806526353        2.9678486416       -6.1995506038
 H        -3.9921911923        0.8807167873       -5.7852986696
 H        -2.7771220078        1.1336698900       -6.8305007361
 H        -3.7540371607       -0.2764989673       -7.2240722059
 H        -9.0839691574        2.3241335490      -10.4539478723
 H       -10.2078127186        1.8444677580      -11.5222566313
 H        -8.8825323677        0.6582216436      -11.0132193311
 H       -12.7314539817        1.5562111958       -9.4445109086
 H       -11.5129858042        2.9672811573       -9.6916539616
 H       -11.6997891761        2.0718281919       -8.0915885597
 H       -10.9691556877       -4.9304941793       -8.4844718982
 H       -12.4327023379       -5.6526384562       -9.3028886339
 H       -11.7275358080       -6.3608656929       -7.9092990409
 H       -14.5277887578       -6.3235159650       -7.2064876631
 H       -14.9713905518       -5.2783414265       -8.5963438116
 H       -15.2919274820       -4.7789823557       -6.9686477969
 H       -13.2621641734        1.1527813828       -2.7678103614
 H       -14.0776754382        0.3520728513       -4.0796883600
 H       -12.3597140236       -0.1149841188       -3.6958451085
 H       -12.8055132482       -0.5744447080       -0.3634211553
 H       -11.6112420584       -0.8344161597       -1.6018991106
 H       -12.4877468291       -2.2251973813       -0.8002406495
 H       -16.2394037226       -3.7363826460        2.6833074717
 H       -15.5627598083       -2.9823676833        1.2930248001
 H       -16.4354457142       -4.5190757203        1.0587087161
 H       -19.3300231793       -4.0626350677        2.3037809843
 H       -18.8678033540       -4.6579962881        0.7411140497
 H       -19.8367586625       -3.2154774899        1.0028987623
 H       -16.5340767583        1.3709307871        5.5689719117
 H       -18.1956857691        1.1601514411        5.8730551521
 H       -17.6480358486        2.9224919306        5.8805033245
 H       -18.4699852319        4.2374369886        4.2145947257
 H       -19.9075599894        3.1374830729        4.3599456110
 H       -19.2001120356        3.4373063703        2.8081058718
 Na      -16.6817001746        0.3889667393        0.8912157586
 Na        8.9376405060       -3.5933289098      -17.9136665304
