232

 C       -15.7994381264        3.8631128414        3.8121453423
 C       -16.4657831917        2.7064206299        3.1675662118
 O       -16.0948556958        2.2599892711        2.1092260285
 C       -17.8544082835        2.2611425977        3.9181860163
 C       -18.5235157161        0.9826708172        3.2192208159
 O       -18.7826917156        1.0252739867        2.0361803114
 C       -18.8360393638       -0.1640799682        4.1679917312
 C       -19.0843078204       -1.3783268803        3.3133671890
 C       -17.7103708001       -1.6970427627        2.5531132626
 O       -16.7234151180       -1.0899709997        2.7758986125
 C       -17.7331361924       -2.8177425204        1.3091069401
 C       -17.7440064922       -1.9363190438       -0.0078028125
 O       -18.4214473237       -0.9328962965       -0.0550616740
 C       -17.0471488917       -2.6309910618       -1.1532105161
 C       -16.3281393478       -1.6328170412       -2.1588762782
 C       -15.1156747924       -0.9396479974       -1.4654278267
 O       -15.1230816021       -0.1847476498       -0.4591733436
 C       -13.6496720756       -1.1692775461       -2.1872564630
 C       -13.7315656913       -2.5471832379       -2.8892713282
 O       -14.2221004362       -3.5872323068       -2.3639242930
 C       -13.3188123188       -2.7107686807       -4.3718781679
 C       -13.5906670782       -4.1695581190       -4.9532930958
 C       -12.6100806541       -4.3118915922       -6.1703597207
 O       -11.3974878032       -4.2508511114       -5.8816896866
 C       -13.1054830284       -4.5177177642       -7.5502192563
 C       -13.4122313117       -3.0760911590       -8.2444625568
 O       -14.5249662778       -2.6574549743       -8.1732763746
 C       -12.1655790141       -2.3955718701       -8.8987737379
 C       -12.4207171159       -0.9193275595       -9.1139200883
 C       -11.2982767754       -0.3471659319      -10.0081243304
 O       -10.9428399327       -0.9110233047      -11.0080274501
 C       -10.6508034192        1.0293351120       -9.4510292445
 C        -9.9788568425        0.5898640861       -8.0982653088
 O       -10.5724759307        0.4361542453       -7.0559715712
 C        -8.5453372651        0.1489113801       -7.9801469160
 C        -7.4803843132        1.3130502090       -8.0222328871
 C        -6.0040818963        0.7585363813       -8.1137165416
 O        -5.8373387528       -0.3569901107       -8.5840670996
 C        -4.8051865535        1.6102912830       -7.6312183617
 C        -3.9730279493        2.2584675683       -8.8861838529
 O        -3.8226288048        3.4433452127       -9.0572940939
 C        -3.4607581653        1.2240512185       -9.9014397931
 C        -1.9153980598        1.3143414413      -10.0904212973
 C        -1.4912927936        1.8441222366      -11.5778905981
 O        -2.2995680108        2.0751608069      -12.4247293821
 C        -0.0068073254        1.9228257725      -11.8168010459
 C         0.7208807583        0.3903072367      -11.7811089743
 O         0.0417462062       -0.5303482430      -11.3691692593
 C         2.1815835057        0.3184949813      -12.2082749113
 C         2.8464760459       -0.9887368081      -11.8995159845
 C         4.1829714667       -1.0989996644      -12.6435616729
 O         4.9434808707       -0.2112269560      -12.3693874443
 C         4.6088088638       -2.2436256793      -13.7405297009
 C         5.6439876828       -1.5340017340      -14.5738723790
 O         5.2281927078       -1.1097305962      -15.6210323244
 C         7.1363176704       -1.3956713950      -14.1679854536
 C         7.7827502698       -0.4790803035      -15.2310647583
 C         7.6044578476       -1.0577612437      -16.6060573126
 O         7.8913820758       -2.2719258872      -16.7461665319
 C         7.3087144026       -0.1718023443      -17.8143372896
 C         8.6841224956       -0.1757091158      -18.6181591426
 O         8.6966982617       -0.8355436869      -19.6327876415
 C         9.7977167348        0.7086867087      -17.9168789047
 C        11.2240583424        0.2660192908      -18.3041593649
 C        11.3688057940       -1.2297381951      -18.3287803423
 O        10.6037458552       -1.8391226283      -17.6263378576
 C        12.3285146731       -2.0012581315      -19.2736222915
 C        11.6368992455       -3.2575773641      -19.9433096141
 O        11.5116680132       -4.3562350597      -19.3565826685
 C        10.7303661385       -2.9848983583      -21.1242953274
 C        10.0261798384       -4.2779379185      -21.5829654676
 C         8.5359004043       -4.4124694413      -21.0300815892
 O         8.1368562210       -3.8184633707      -20.0704338857
 C         7.6085137800       -5.5008856623      -21.6992690338
 C         7.2570964370       -6.7097499083      -20.6504543073
 O         6.1765941582       -6.9211575025      -20.0896996775
 C         8.3050321698       -7.7915705943      -20.3194594829
 C         8.3212770355       -8.0948050531      -18.8579190706
 C         8.7234874538       -6.9075216484      -17.9249530156
 O         8.8590202753       -5.8323762227      -18.4782458439
 C         9.1163122314       -7.1740046999      -16.3879746512
 C         8.5407244439       -6.0333443707      -15.4568849597
 O         9.0179395990       -4.9186948945      -15.6228905263
 C         7.5221243333       -6.2436066377      -14.3525087479
 C         8.5022755451       -8.5667642956      -16.0315297284
 C        10.6411436244       -7.2140913498      -16.2328258520
 C         6.2905415625       -4.7975704102      -22.3218266417
 C         8.3038488992       -6.3017467719      -22.8404189750
 C        12.8054064384       -0.9565594007      -20.3462260126
 C        13.6694547005       -2.3983946223      -18.3917641776
 C         6.2212033915       -1.0301308787      -18.7293789776
 C         6.7094851241        1.1952685499      -17.6702611719
 C         5.2317010487       -3.4093313726      -12.9273542771
 C         3.5040814871       -2.7361796379      -14.6611005474
 C         0.1882662058        2.4386684355      -13.2380500999
 C         0.5833264581        2.8604037063      -10.7427830943
 C        -5.2046115936        2.7036175129       -6.5593325605
 C        -3.8214094077        0.5188819929       -7.0324625930
 C        -9.6112481488        1.5410652543      -10.5249761654
 C       -11.7375160834        2.1861177892       -9.4338260769
 C       -12.0348930282       -5.3923177429       -8.2749342706
 C       -14.3374121580       -5.4025059019       -7.5752924893
 C       -13.6058867785        0.0397123124       -3.1197980725
 C       -12.6276389998       -1.1501146077       -1.1389547361
 C       -16.4609145628       -3.7245668788        1.4374349576
 C       -19.0106635661       -3.6993989518        1.2332650822
 C       -17.5375728228        2.0564239505        5.4679154696
 C       -18.7604497797        3.3465029354        3.6436613702
 H       -15.9140352244        3.7550872031        4.8727381838
 H       -16.3069252281        4.8057601521        3.5467400995
 H       -14.7093556083        3.9128057315        3.7214924331
 H       -19.7630085205        0.1156586545        4.7053680804
 H       -18.0188660703       -0.2858345120        4.8125008060
 H       -19.9264697863       -1.1541466451        2.6515916914
 H       -19.3600864991       -2.4047670816        3.7988924757
 H       -17.9307988367       -3.0327071775       -1.6834186732
 H       -16.4002704570       -3.4396953220       -0.8576194045
 H       -17.1024767759       -0.9308872459       -2.4844784725
 H       -15.9913748902       -2.0521816842       -3.0790065146
 H       -12.2431670931       -2.5276002144       -4.3453300381
 H       -13.7495335704       -1.9308907245       -5.0613814463
 H       -14.5907622041       -4.2448985144       -5.3464619779
 H       -13.4873435824       -4.8687404113       -4.2186714976
 H       -12.1693990969       -2.8488435822       -9.9080889634
 H       -11.2591803878       -2.6648881362       -8.3431143791
 H       -12.2991645681       -0.5049499119       -8.0965866220
 H       -13.4060665978       -0.6635610570       -9.5233531548
 H        -8.3332164604       -0.4727031608       -8.8672113297
 H        -8.2733895969       -0.4915406277       -7.1529337414
 H        -7.5810213144        2.0511300058       -7.2038497992
 H        -7.3495295078        1.9526240778       -8.8773599572
 H        -3.9359450029        1.3811086592      -10.8593674619
 H        -3.7060236011        0.1799047253       -9.5278973037
 H        -1.5010244586        0.3501181098       -9.9218670280
 H        -1.4698983956        1.8914966498       -9.2769955200
 H         2.6508843384        1.3165146121      -11.9179184945
 H         2.0870150425        0.4528063848      -13.3033875449
 H         2.0925570359       -1.7694924084      -12.1306664975
 H         3.1431915695       -0.9351465398      -10.7873346260
 H         7.5863998783       -2.3368607439      -14.2013525157
 H         7.2012848593       -0.9762948785      -13.1936333130
 H         8.8692204779       -0.4715128588      -15.1134149336
 H         7.3846624776        0.5359035391      -15.0403186111
 H         9.6648597282        0.6231950027      -16.8659010164
 H         9.5943484419        1.6714877518      -18.4141693726
 H        11.9420708903        0.7009400853      -17.6624537449
 H        11.4109108204        0.6816855443      -19.2966367994
 H        11.1054525844       -2.6258228412      -22.0978610165
 H         9.9862755442       -2.2730967479      -20.7585484331
 H        10.5875531734       -5.1815340132      -21.3000921018
 H         9.9166376936       -4.2306686860      -22.6687907655
 H         9.3200191614       -7.5850445222      -20.6587539482
 H         7.8426413611       -8.5537280561      -20.8840751926
 H         8.9857400085       -8.9542897381      -18.6349704268
 H         7.2833258852       -8.3606603176      -18.6004533295
 H         7.6532192190       -7.2152195603      -13.7680252632
 H         6.5091061105       -6.1182485794      -14.6570788054
 H         7.7781112820       -5.5193576916      -13.4705374434
 H         7.3913725339       -8.5767134813      -15.9092372510
 H         8.6159039269       -8.7485303843      -14.9630900025
 H         8.6698404679       -9.4702061946      -16.5842451120
 H        10.9791688307       -6.2693340587      -16.5802468916
 H        11.0640498737       -7.9505775901      -16.9116596167
 H        10.8713492550       -7.4241117786      -15.2489508743
 H         5.6102832126       -5.5928380303      -22.5937917214
 H         6.6232477025       -4.2982127519      -23.2009553325
 H         5.9925746342       -3.9563076854      -21.6861687380
 H         7.7260969939       -7.2371014570      -22.8330250651
 H         9.3992467955       -6.4655963061      -22.6373903200
 H         8.2289476824       -5.7269778705      -23.7781356559
 H        11.9544091284       -0.4146070072      -20.7403589485
 H        13.2976291593       -1.4470180306      -21.1309307519
 H        13.5137758482       -0.3466282443      -19.9065823145
 H        14.3944868397       -1.7630888073      -18.7489376384
 H        13.8011511836       -3.4734395092      -18.4938407876
 H        13.4781962103       -2.3264312017      -17.3073120470
 H         5.3855007620       -1.0156746027      -18.1674322063
 H         6.5537725391       -2.0334602540      -18.8145340150
 H         6.1370990807       -0.6825110480      -19.7669203782
 H         7.5094725679        1.9678416071      -17.5152543549
 H         5.8913408493        1.2036032073      -16.9184047848
 H         6.2051159439        1.5476705613      -18.5765188136
 H         4.5163179409       -3.7451762252      -12.2394718443
 H         6.1115917065       -3.1867860446      -12.2837110247
 H         5.7018660674       -4.1511903130      -13.5698361795
 H         2.5903341790       -3.0717714876      -14.2523270988
 H         3.8218767636       -3.6063628938      -15.2499936072
 H         3.3292807014       -2.1180001008      -15.5106758051
 H        -0.6273553809        3.0891974917      -13.5399761157
 H         0.2349374575        1.7062371218      -13.9784088086
 H         1.0345022864        3.0880472512      -13.2804414719
 H         1.7123577278        3.0309843276      -10.7717078581
 H         0.5170090410        2.4260667537       -9.7423706775
 H         0.0805316912        3.7820988533      -10.8173743534
 H        -5.2420475533        3.7168688324       -6.9754915153
 H        -4.4249183726        2.5444481663       -5.8190150781
 H        -6.1647087479        2.4663622029       -6.1657939627
 H        -4.0962474193        0.0718704333       -6.1158730280
 H        -2.8509022525        0.8937285411       -6.8037418008
 H        -3.6473672126       -0.1818592068       -7.7439497109
 H        -9.3092382463        2.5928882496      -10.3355657179
 H       -10.1102156213        1.5699668901      -11.5450386733
 H        -8.7443645714        0.9401147500      -10.4603737175
 H       -12.6881633533        1.7572673756       -9.4623775268
 H       -11.5343818159        2.8625962231      -10.2894936047
 H       -11.6740914277        2.7556944145       -8.5106542471
 H       -11.1821075061       -4.8113968620       -8.5053879708
 H       -12.4172905736       -5.7555990599       -9.2302640780
 H       -11.6735443505       -6.2610648490       -7.7080600215
 H       -14.3340548220       -6.2503898233       -6.9387584516
 H       -14.4022660056       -5.7264488488       -8.6148249096
 H       -15.2143948467       -4.8457081785       -7.2466928172
 H       -13.8184892952        0.8759523544       -2.5438012390
 H       -14.4077782813        0.0298301694       -3.8445889597
 H       -12.6541464246        0.2736466884       -3.6247786937
 H       -12.6133509447       -0.1564521281       -0.5952075872
 H       -11.6713887926       -1.2923254781       -1.5498437782
 H       -12.8343791286       -1.8739868205       -0.3876032656
 H       -16.4551255465       -4.1773600625        2.4184135878
 H       -15.5919872407       -2.9961080880        1.5535104137
 H       -16.3358416760       -4.4044714572        0.5859761729
 H       -19.0509095553       -4.2526061982        2.2530484395
 H       -18.8612142661       -4.4314925246        0.4350230581
 H       -19.9755674943       -3.0411037045        1.2625778482
 H       -17.0465094831        1.1518110739        5.4713561654
 H       -18.4575062605        1.9723272001        6.0987792495
 H       -17.0979621373        2.9233998084        5.8827050195
 H       -18.3320420435        4.3131111357        4.0272527081
 H       -19.7285191304        3.2340551046        4.1417070434
 H       -19.0427884637        3.3991446831        2.6035343752
 Na      -16.8364184646        0.5874893349        0.9811383842
 Na        9.3052948875       -3.7653240160      -17.6860703455
