232

 C       -15.6052793989        4.1660091545        3.6848347908
 C       -16.4260776838        2.9180636864        3.1925241876
 O       -15.9912087314        2.2780607206        2.2476866199
 C       -17.8311476557        2.4750083198        3.9466144613
 C       -18.4713211088        1.2328309355        3.2584287901
 O       -18.7816792204        1.2763790625        2.0649568728
 C       -18.9371043199       -0.0704915160        4.1064759171
 C       -19.0532631575       -1.4245532047        3.2575119230
 C       -17.8002827605       -1.8033070409        2.4578771490
 O       -16.7028237873       -1.2022555804        2.6273236484
 C       -17.7780386231       -2.9549459347        1.3110168558
 C       -17.7630809376       -2.1500232521       -0.0038502516
 O       -18.3162132691       -1.0459672713       -0.0116427262
 C       -17.2633719328       -2.6891229345       -1.3656636121
 C       -16.5762269876       -1.4382521793       -2.0764517722
 C       -15.1507051210       -0.9157663842       -1.3689396454
 O       -15.1816456137       -0.1804855249       -0.4358701259
 C       -13.8197672523       -1.2666409163       -2.1001366846
 C       -13.7472379952       -2.7450721402       -2.7995710355
 O       -14.1679380757       -3.6556572366       -2.1665728543
 C       -13.1637343660       -2.7828439833       -4.1583079201
 C       -13.6195478546       -3.9109277077       -5.0497846160
 C       -12.5993047034       -4.2581517948       -6.1999175967
 O       -11.4212603728       -4.1860314104       -5.9919959534
 C       -13.0953061119       -4.6519725459       -7.6929807325
 C       -13.3485815526       -3.2451558342       -8.2708700365
 O       -14.5177535061       -2.8004590129       -8.2547214084
 C       -12.1381731319       -2.4871977727       -8.8098408856
 C       -12.4426033579       -0.9993783700       -8.9207548096
 C       -11.4124609212       -0.2797728675       -9.7930765242
 O       -11.2942817343       -0.6148099453      -10.9506180786
 C       -10.5945386816        0.9659926830       -9.3013061980
 C       -10.0332391834        0.6997102041       -7.9753869167
 O       -10.8012729745        0.7441351542       -7.0032937811
 C        -8.5836128008        0.2040840596       -7.8516523048
 C        -7.5110707728        1.2888686656       -7.8570682683
 C        -6.0232685079        0.6783207995       -8.0934645841
 O        -5.9172622544       -0.3792728151       -8.6673824173
 C        -4.7534712515        1.3520672079       -7.5672254714
 C        -4.0544085382        2.0935793316       -8.7930477323
 O        -4.0465712607        3.2866166854       -8.7313766857
 C        -3.5944439220        1.3034271821      -10.0264406917
 C        -2.0531522388        1.2517437794      -10.2372448237
 C        -1.6495825634        1.6990060177      -11.6423286607
 O        -2.5044287089        1.8449399840      -12.4901191989
 C        -0.0180786340        1.9418200664      -11.9986828887
 C         0.6735072249        0.6068996815      -11.6929899411
 O         0.1873793360       -0.2209581733      -10.9816781571
 C         2.2714634844        0.4859859795      -12.2649653240
 C         2.8157206965       -0.9598404720      -12.2090869042
 C         4.1989272873       -0.9516995307      -12.7357552098
 O         4.9609512858       -0.1803311652      -12.2181308501
 C         4.6384421937       -2.0339949227      -13.7141713163
 C         5.5875274441       -1.3308619129      -14.6919256117
 O         5.2423588420       -0.9783701767      -15.8044734197
 C         7.0555488638       -1.1719706952      -14.2126056162
 C         7.9215738216       -0.3704813041      -15.3450158648
 C         7.7154989052       -1.1040293114      -16.6952277897
 O         8.0026382256       -2.2631328530      -16.6956318773
 C         7.4144315433       -0.2548996870      -18.0750596417
 C         8.7599259208       -0.1312521729      -18.7528139522
 O         9.2553232635       -0.7033428104      -19.7458830520
 C         9.8671726743        0.8528452134      -17.9949017363
 C        11.2749379438        0.3721491283      -18.3757314678
 C        11.3946989302       -1.1813994988      -18.4404237032
 O        10.7468115823       -1.8034810201      -17.5831786322
 C        12.3168354000       -2.0054905408      -19.4224096382
 C        11.4348160334       -3.2757704479      -19.8530030035
 O        11.5013176980       -4.2067197713      -19.1078100494
 C        10.6720402093       -3.1919490067      -21.1091694486
 C        10.0073032361       -4.4718090533      -21.6446069546
 C         8.5874569289       -4.6622831557      -21.0926673799
 O         8.0858674758       -3.9191767002      -20.2501038481
 C         7.6100670904       -5.6790905188      -21.8432224279
 C         7.2886696369       -6.7040971858      -20.6677853170
 O         6.2452820510       -6.7083919960      -20.1167403947
 C         8.4189894478       -7.6639134914      -20.3505957044
 C         8.3954758443       -8.1762844039      -18.8299221627
 C         8.8109240218       -7.0773452954      -17.8776576629
 O         9.1156510362       -6.0043109776      -18.3649260145
 C         8.9781949444       -7.3062833243      -16.3831096341
 C         8.5544162135       -5.9710703519      -15.5812211021
 O         9.1657322353       -4.9204598031      -15.6499471077
 C         7.4568567841       -6.1747691789      -14.4689111485
 C         8.2922458479       -8.5329165531      -15.8376440646
 C        10.5758176588       -7.4285632437      -16.1790563356
 C         6.2552278247       -4.9418362063      -21.9976253255
 C         8.0995771079       -6.3626162479      -23.1631713692
 C        12.8879222647       -1.2969167980      -20.6301574276
 C        13.4167333995       -2.6292950259      -18.5490434421
 C         6.4287521291       -1.0810566015      -18.7772163665
 C         6.8289847417        1.1306381660      -17.5963563803
 C         5.2667476270       -3.0899780625      -12.7417890079
 C         3.4302594415       -2.6719927991      -14.3678179806
 C         0.0650682840        2.4382109531      -13.4645039148
 C         0.7731917649        2.9646472343      -11.1806777578
 C        -5.0123802035        2.4990327005       -6.4967408579
 C        -3.7312681532        0.4347085882       -6.8642258147
 C        -9.5783249203        1.3678355106      -10.4010079559
 C       -11.6837803361        2.0770259199       -9.1016402947
 C       -12.0144312624       -5.3388608250       -8.4744773718
 C       -14.3718397715       -5.4786093942       -7.6355164304
 C       -13.7409727277       -0.1717051918       -3.1297285477
 C       -12.5809504353       -1.2068351861       -1.1508053760
 C       -16.5299118884       -3.8567639881        1.7199718148
 C       -19.1203078473       -3.7890328868        1.3593098349
 C       -17.6661249915        2.3132178528        5.5504719017
 C       -18.8364945749        3.7088842723        3.6383640852
 H       -15.1811895214        4.0569782455        4.7115985009
 H       -16.2493077478        5.0272537279        3.7203316514
 H       -14.7293330916        4.3298082331        3.0335649102
 H       -19.9502527562        0.0685517148        4.4804773612
 H       -18.1641601658       -0.3048718588        4.9268667322
 H       -19.8058237645       -1.3912374971        2.4331221866
 H       -19.4513628509       -2.1466088697        3.9267089436
 H       -18.1222687024       -3.0215870393       -1.9800429656
 H       -16.4669677008       -3.4581078476       -1.2627725979
 H       -17.2748765148       -0.5957025711       -1.9591537594
 H       -16.5543844033       -1.5774081259       -3.1828737841
 H       -12.0567804435       -2.7591584606       -4.1817684187
 H       -13.4605889744       -1.8791344012       -4.6357653593
 H       -14.6624005193       -3.8871736132       -5.3869200248
 H       -13.4505357299       -4.9265441701       -4.4722497482
 H       -11.7800178525       -2.7942835518       -9.8011209422
 H       -11.4372614717       -2.7514047245       -7.9983716422
 H       -12.5379104640       -0.5768005813       -7.9257902037
 H       -13.3672787305       -0.8218567390       -9.4978377213
 H        -8.3004232193       -0.4890783994       -8.6789812311
 H        -8.5922381571       -0.3061837010       -6.8428823920
 H        -7.4888168724        1.7980590956       -6.9452547168
 H        -7.6865442076        2.0984098788       -8.6105086448
 H        -3.9023154429        1.8544167805      -10.9252969431
 H        -4.0632798463        0.3583546026      -10.0817277740
 H        -1.5553923199        0.3132548545       -9.9051720629
 H        -1.5642276699        2.0091840254       -9.6334475018
 H         2.9529499242        1.2183186462      -11.8818650514
 H         2.2015205190        0.8171070211      -13.3154689655
 H         2.1740714453       -1.5371333461      -12.8900506250
 H         2.8418806500       -1.4425577545      -11.2357817329
 H         7.4512806061       -2.2274706881      -14.1410519456
 H         7.0443226347       -0.7134315112      -13.1973534121
 H         8.9827466568       -0.3647957702      -15.0690069730
 H         7.5018486126        0.6185380622      -15.3368549917
 H         9.7072093567        0.7598036079      -16.9148062613
 H         9.7486246759        1.8316640775      -18.4087563576
 H        12.0379236645        0.7232993135      -17.6277035988
 H        11.4955918635        0.8504444970      -19.3292256034
 H        11.2261031289       -2.7655377447      -21.9289471525
 H         9.7941698468       -2.4978495492      -21.0094190844
 H        10.4620456126       -5.3745185621      -21.3019026616
 H         9.9245912332       -4.4749296506      -22.7179140778
 H         9.3777264298       -7.1442429400      -20.5341680928
 H         8.4498370567       -8.5795206146      -21.0705814425
 H         9.1194209820       -8.9984548831      -18.8398254908
 H         7.4466062440       -8.5933233400      -18.4920116961
 H         7.7306734837       -7.0538317370      -13.8863816809
 H         6.4810989793       -6.4555249865      -14.9624813330
 H         7.2865659565       -5.3872550326      -13.7767664893
 H         7.1986218948       -8.5171681413      -15.8558539037
 H         8.4026556013       -9.0190106007      -14.8667219274
 H         8.6235075660       -9.3292054736      -16.5690858930
 H        11.0965160064       -6.4663791175      -16.1863054597
 H        10.9191450237       -7.9426693734      -17.0603945905
 H        10.7806889822       -8.0643565339      -15.2712292625
 H         5.6154125581       -5.6871726158      -22.4930656206
 H         6.2960038034       -4.0528849095      -22.6494711657
 H         6.0521133582       -4.5567628346      -21.0487848050
 H         7.2920433904       -6.9232758752      -23.5902027158
 H         8.9617958353       -6.9670537158      -23.0026624593
 H         8.3439955384       -5.5035230465      -23.7838955547
 H        12.0651254048       -1.0420874038      -21.2871857031
 H        13.6240737075       -2.0154401808      -21.0324768962
 H        13.5082614563       -0.3571086467      -20.4032435914
 H        13.8679081096       -1.7547605166      -17.9264671256
 H        14.2444182686       -3.0635003087      -19.1513843783
 H        12.9884410848       -3.5025635668      -18.1237053975
 H         5.4050943382       -0.7747308034      -18.4264517959
 H         6.5468727396       -2.1467039752      -18.5528165998
 H         6.5371267507       -1.0106560632      -19.8674235143
 H         7.5493550690        1.6258052749      -17.0024116767
 H         5.9421774678        0.8941010837      -17.0201886019
 H         6.5615803391        1.8760455429      -18.3673724896
 H         4.4811733630       -3.4280827923      -12.0097522974
 H         6.0939211584       -2.7056969042      -12.1964921912
 H         5.7360143970       -3.9171561331      -13.2263113720
 H         3.0506292463       -3.5290475944      -13.7369556859
 H         3.3978102358       -3.0645614700      -15.3814955980
 H         2.5955019173       -1.9805840938      -14.5336439470
 H        -0.9109576319        2.8213194219      -13.7495895279
 H         0.1744448454        1.5417698617      -14.1268369293
 H         0.8218317734        3.1904532983      -13.7293659472
 H         1.7632224841        2.7056626672      -10.9508724297
 H         0.3528243778        3.0965966224      -10.1880440857
 H         0.8686640570        3.9524221930      -11.7067008958
 H        -5.8540869493        2.9960568473       -6.9591013059
 H        -4.1379712005        3.1662676904       -6.3973108206
 H        -5.4214709617        2.0346668882       -5.5783998387
 H        -4.2727962142       -0.1687908745       -6.0836898628
 H        -2.8533853435        0.9050314324       -6.3689125621
 H        -3.2208495271       -0.3984885792       -7.5063384174
 H        -8.9734560274        2.2635562858      -10.1588389735
 H       -10.1316061474        1.5219101712      -11.3108162210
 H        -8.8676770452        0.4816342710      -10.5265400811
 H       -12.3873799058        1.6568445723       -8.3282580356
 H       -12.2158889084        2.3575968353       -9.9968921844
 H       -11.2234889317        3.0199561948       -8.7236485313
 H       -11.0229734279       -5.0074097460       -8.0606922108
 H       -11.9539849202       -5.0175713141       -9.5180874229
 H       -12.0986220344       -6.4108935077       -8.4416125269
 H       -14.4844313542       -5.9626736059       -6.6121000566
 H       -14.5099623664       -6.2099052535       -8.4237343253
 H       -15.1874597670       -4.7496643834       -7.5228863339
 H       -13.5960746547        0.8366165001       -2.6403437975
 H       -14.5221907110       -0.1692994147       -3.8360267332
 H       -12.8024516930       -0.2960626022       -3.6367448992
 H       -12.3735200043       -0.2271808647       -0.8467650449
 H       -11.6812047667       -1.5897886441       -1.7039727547
 H       -12.7275730370       -1.7599737820       -0.1903492391
 H       -16.8598836154       -4.1418576256        2.7011814742
 H       -15.6133413723       -3.3730180402        1.8658883887
 H       -16.3816511410       -4.6931789911        1.0217692007
 H       -19.0162122621       -4.4821776966        2.1492045734
 H       -19.2497310997       -4.3438722978        0.4273567587
 H       -19.9004998727       -3.1637500807        1.5997772353
 H       -16.9227540008        1.5381760645        5.8758005511
 H       -18.6228852643        2.1044952091        5.9261577390
 H       -17.6119781025        3.3865088420        5.9258220546
 H       -18.6499666398        4.5942305909        4.1388578748
 H       -19.8558385932        3.4895537442        3.8649756276
 H       -18.8519003152        3.7925908563        2.5377868880
 Na      -16.9480747421        0.5512111947        0.8270983183
 Na        9.7311706611       -3.8372015211      -17.6778933426
