232

 C       -18.7014402676      -11.9452031308       -0.7511397883
 C       -17.6288906830      -12.4816112530       -1.5717681571
 O       -17.4082783155      -12.0660073738       -2.7046529829
 C       -16.7085030836      -13.7255585126       -1.0539093342
 C       -15.3089453823      -13.7121820257       -1.8237793271
 O       -15.2313087298      -14.2233528613       -2.9681900164
 C       -14.1709583643      -13.1644262003       -1.0205296076
 C       -12.9395915248      -12.8132366918       -1.9157968893
 C       -13.3083499234      -11.8536939218       -3.0742802450
 O       -14.1396499139      -10.9596913693       -2.9252622389
 C       -12.4159539498      -11.8747870895       -4.3226653254
 C       -13.3858461602      -11.7408895547       -5.5858964799
 O       -14.1313475247      -12.5830487290       -5.9210440041
 C       -13.3570603462      -10.3612752451       -6.2324851095
 C       -14.8127473213      -10.0365992953       -6.8150471749
 C       -15.7050517393       -9.3263447409       -5.7315088517
 O       -16.1869622761       -9.9393427382       -4.7773856618
 C       -16.0613472960       -7.8186519689       -5.8102113572
 C       -14.7307005875       -7.0783597211       -6.3278066174
 O       -13.6755491944       -7.4429212454       -5.7893474833
 C       -14.8587213001       -5.8575073519       -7.2374675838
 C       -13.6221956019       -5.7170063250       -8.1600348931
 C       -13.9028490310       -4.9123889428       -9.4181335795
 O       -14.9858787598       -5.0340410914      -10.0029812782
 C       -12.7718005714       -4.1417226934      -10.1927888194
 C       -11.8855537082       -3.3897355430       -9.0214613442
 O       -12.3252455707       -3.3828461255       -7.9026303842
 C       -10.5965214090       -2.6104661744       -9.4016896686
 C        -9.9334613060       -1.9345180170       -8.1759274567
 C       -10.3373195823       -0.3767189089       -8.0807305568
 O       -11.2197823953        0.0246322476       -8.8003423044
 C        -9.5260094205        0.4773066995       -7.0398305067
 C        -8.0733370379        0.5168966991       -7.5103915154
 O        -7.3694020373       -0.4087395749       -7.2088005931
 C        -7.5402279809        1.6591410056       -8.2983732710
 C        -6.7691959650        1.0532820387       -9.5271158308
 C        -5.8005094703        1.8486478582      -10.3678565223
 O        -5.5293862231        2.9679112943      -10.0319924776
 C        -4.9850399043        1.1533847571      -11.4807437121
 C        -3.7265861335        0.6317691704      -10.7276660992
 O        -3.7104290682       -0.4240001284      -10.1622091206
 C        -2.6188804372        1.6805437679      -10.3763861714
 C        -1.3708746952        1.0638393027       -9.7453490455
 C        -0.2614330295        2.1267197897       -9.7395004436
 O        -0.4171316499        3.2803369712      -10.0869905974
 C         1.1561441839        1.4131855077       -9.4814238238
 C         2.3343180726        2.5240372037       -9.3631606382
 O         3.1457248321        2.5565276631      -10.3103000218
 C         2.4165663963        3.5621733365       -8.2823722928
 C         3.7338166669        4.3579422431       -8.3458904018
 C         3.7910162572        5.4759208469       -9.4482402319
 O         2.7768497947        6.0671012098       -9.6644613051
 C         5.0606444741        5.5463274519      -10.3951591245
 C         4.7241899679        4.7385953989      -11.6714412194
 O         5.6533783529        4.1783107617      -12.2109070764
 C         3.2376525420        4.7498626252      -12.1562350163
 C         3.0245866023        5.9662009053      -13.1448286332
 C         3.3820113446        5.6831272324      -14.6282642202
 O         3.5830426663        4.5294613818      -15.0495548823
 C         3.2521938631        6.7288301288      -15.7081204283
 C         4.6977728731        6.8720222968      -16.5565829382
 O         4.6121798722        7.2976347860      -17.6562000578
 C         6.0251825340        6.5354031499      -15.8841767093
 C         7.1942015672        6.0388889952      -16.8593544173
 C         7.4243015158        4.5107139032      -16.9054334541
 O         6.8498913379        3.6621772746      -16.1360061886
 C         8.6388759730        3.9803373403      -17.7825601352
 C         9.8701269535        3.7011583963      -16.8575601412
 O         9.7886888753        3.6868966334      -15.6603738234
 C        11.2328066167        3.2878050571      -17.5852662011
 C        11.9832229758        2.3355680437      -16.6388369334
 C        11.6857441933        0.8257284415      -17.0230635308
 O        11.4102667716        0.4920129431      -18.1865685493
 C        11.7335977296       -0.1629117911      -15.8277163910
 C        10.9571423613        0.4346237008      -14.5725236458
 O        11.4689749620        0.3287856642      -13.4657771082
 C         9.4242487719        0.6830485268      -14.7418200182
 C         8.5418660796        0.1025925248      -13.6175181902
 C         7.0380861820        0.6129742893      -13.7432046314
 O         6.8638536286        1.6744455504      -14.3318851752
 C         5.8862037785       -0.1468036131      -12.8863259337
 C         4.5368495292        0.1398370329      -13.7499678362
 O         4.0584380117        1.2329726206      -13.6339092944
 C         3.8172883761       -0.9818805808      -14.4976500772
 C         6.2182420167       -1.6510112947      -12.8765153230
 C         5.6550395151        0.3791476969      -11.4503991650
 C        11.0791709419       -1.5367790304      -16.3382415847
 C        13.2095952429       -0.4117099419      -15.4570527402
 C         8.2876587041        2.6051341621      -18.2720419295
 C         8.9528865723        4.9304543319      -19.0104959192
 C         2.1489857353        6.3670170906      -16.8186497329
 C         2.9534458208        8.1477587201      -15.2321016399
 C         5.3029632442        7.0213391769      -10.7904751856
 C         6.3960020463        4.9131237307       -9.7778625243
 C         1.1922171387        0.6129376142       -8.1539073344
 C         1.5044709917        0.4064511610      -10.6537999909
 C        -5.8242596397       -0.0282886447      -12.0885066594
 C        -4.4683067844        2.0954004137      -12.5752620241
 C       -10.2265337398        1.8475748699       -6.9453501351
 C        -9.4310495295       -0.2488480806       -5.5704388721
 C       -11.8489972158       -5.0958070362      -10.9099306627
 C       -13.5278994840       -3.2173271895      -11.2675195074
 C       -17.2858243246       -7.7036732342       -6.6960229839
 C       -16.4259247557       -7.2648060448       -4.3968972179
 C       -11.3878717401      -10.6248678918       -4.2797657199
 C       -11.5422396013      -13.1731266065       -4.4174723881
 C       -16.4764015112      -13.7203803968        0.5132736515
 C       -17.4959988410      -15.0429569772       -1.2953353418
 H       -18.9307823180      -10.9029794228       -1.1136667934
 H       -18.4342351533      -11.9997751007        0.2593737007
 H       -19.5858532015      -12.5148305710       -0.9897821757
 H       -13.8873339730      -13.9922049809       -0.3780081967
 H       -14.3039413420      -12.2056875657       -0.4468573846
 H       -12.4216297947      -13.7173396683       -2.1944370366
 H       -12.2402696654      -12.2046385446       -1.3183369514
 H       -12.6268366682      -10.4107062887       -6.9913440790
 H       -13.1495105091       -9.4504896134       -5.5993542049
 H       -15.4878229623      -10.9421895856       -7.0309131074
 H       -14.8067544993       -9.4387984913       -7.8334764865
 H       -14.9437276335       -5.0637575357       -6.4852960153
 H       -15.7696105121       -5.9290965058       -7.8866918037
 H       -13.3863884727       -6.7542555474       -8.4620525806
 H       -12.7664672066       -5.2235893680       -7.6869597291
 H       -11.0876103019       -1.8540584459      -10.0560778597
 H        -9.8843901457       -3.2728388689       -9.9359936505
 H        -8.8046247971       -2.0633566401       -8.2554573319
 H       -10.2031454523       -2.2875632456       -7.2380353920
 H        -6.8432302534        2.2343589511       -7.7830896123
 H        -8.3814776557        2.2543793684       -8.6834085204
 H        -7.4291488362        0.5867867517      -10.2505267260
 H        -6.0641271792        0.2124599268       -9.2108328582
 H        -3.1692344153        2.3837942078       -9.7057689675
 H        -2.5074978726        2.3159279994      -11.3351762103
 H        -1.0292364117        0.2741622833      -10.3212138166
 H        -1.6531536909        0.6692292687       -8.6978097893
 H         2.2840259287        3.0673378117       -7.2400814039
 H         1.4964475192        4.1765849237       -8.2665242581
 H         4.4855068200        3.6323947430       -8.6059258709
 H         3.8996146246        4.9673838396       -7.4809833288
 H         2.3947426750        4.9430571774      -11.4398569882
 H         2.8960504138        3.8771237836      -12.6676732303
 H         3.4744486243        6.8939668627      -12.7664841898
 H         1.9181193526        6.2579195567      -13.2696977946
 H         5.8348936884        5.7592429870      -15.1619643033
 H         6.4016852114        7.4137850583      -15.2806779162
 H         8.1362138975        6.4725879071      -16.7474703328
 H         6.8909574373        6.2455186302      -17.8997967025
 H        11.9157962094        4.0743939694      -17.7911686030
 H        10.9637218985        2.8593381102      -18.5604429382
 H        11.7518744512        2.6204000961      -15.5615751608
 H        13.0618560553        2.5129591899      -16.8033046155
 H         9.0761230797        0.2646010186      -15.6304778088
 H         9.2041301314        1.7970663811      -14.7066145666
 H         8.9875076963        0.4103093218      -12.6576097706
 H         8.4494327217       -0.9779895637      -13.6482381144
 H         3.4465231851       -0.8011626214      -15.5393903001
 H         2.9705871429       -1.2588089913      -13.9768990449
 H         4.4100534135       -1.9160417786      -14.5170087816
 H         5.3367052745       -2.2759619126      -12.6504126310
 H         7.0160331439       -1.8118133252      -12.1282665669
 H         6.6636640127       -1.9369647806      -13.8335046609
 H         5.2960348109       -0.3975698292      -10.9012065032
 H         5.1133448661        1.3065801187      -11.3928706433
 H         6.6556026442        0.4876061714      -11.1017602768
 H        11.6899376572       -1.8869765134      -17.2058764958
 H        10.1079450757       -1.3191046546      -16.8531922561
 H        11.0165780022       -2.2140303638      -15.5070028971
 H        13.7506055414       -0.9759223799      -16.2347005512
 H        13.1907960691       -0.9810693419      -14.5185234782
 H        13.8636047042        0.4529178311      -15.4829912947
 H         8.1561384827        1.8356814262      -17.6360766019
 H         9.0191303308        2.1635422441      -18.9828864625
 H         7.3948975922        2.7735842997      -18.8079281020
 H         8.8663796987        5.9762625264      -18.7001996076
 H         8.0865810796        4.6740413153      -19.7411674202
 H         9.8841906813        4.6344949349      -19.3347302823
 H         1.2284802418        6.8497242790      -16.5713702995
 H         2.1474104186        5.3110746153      -17.0775957003
 H         2.4348194621        6.7582842685      -17.8143934409
 H         2.7965524783        8.7858698941      -16.0744887405
 H         3.7692690914        8.6107230292      -14.6732277632
 H         1.9843777130        8.1743161264      -14.6361797516
 H         5.3498463935        7.6826633975       -9.9513007345
 H         4.5487043437        7.4957985880      -11.3727501604
 H         6.1754660184        7.3623117164      -11.3654108509
 H         7.3485248185        5.2888893774      -10.1825564657
 H         6.2259036169        3.8813892300       -9.9239926625
 H         6.6168975548        5.1693130501       -8.7784445245
 H         0.5811703353        1.0083315728       -7.3566261867
 H         2.2439635079        0.5237226713       -7.7731532738
 H         0.8552540935       -0.4591413167       -8.2867051505
 H         0.8297576762       -0.4390303925      -10.6309549792
 H         2.5607044988        0.1976078975      -10.4779928934
 H         1.5902290722        0.8733107083      -11.6625909570
 H        -5.9808668548       -0.7023942037      -11.2527817285
 H        -5.2568297605       -0.4714691215      -12.8740452295
 H        -6.7257158519        0.2535735722      -12.4523444343
 H        -3.4596026209        1.8985629046      -12.8906253364
 H        -4.4109685101        3.1207768381      -12.1102346130
 H        -5.1552885177        2.0342554870      -13.3968860558
 H       -11.2765289046        1.6729078478       -6.6773255228
 H       -10.5187058050        2.3136387648       -7.8964751986
 H        -9.8173321716        2.5589542736       -6.3068792220
 H       -10.2607483083        0.1356981853       -4.9877887271
 H        -8.4965011098        0.1934011303       -5.1705188022
 H        -9.4408195462       -1.3726173361       -5.5987348512
 H       -11.1207313079       -4.6614066055      -11.6171933028
 H       -12.2381158373       -5.9210161272      -11.5203547620
 H       -11.2128219227       -5.6350765370      -10.1791251721
 H       -13.3796666859       -3.4851238395      -12.2795717678
 H       -13.3390942346       -2.1641459804      -11.1845344838
 H       -14.5870050949       -3.2190696403      -10.9687221751
 H       -17.0908137642       -7.9201017135       -7.6960313560
 H       -17.7360612262       -6.7440106183       -6.8617157789
 H       -18.0433525762       -8.3881954591       -6.3614671785
 H       -15.7375575788       -7.5566981033       -3.6272147597
 H       -17.3581833218       -7.7838639321       -4.1119817257
 H       -16.4964125617       -6.1925455955       -4.4921262513
 H       -11.9122579160       -9.7209897489       -4.0148930124
 H       -10.9404472282      -10.4468718608       -5.2375375705
 H       -10.5602195467      -10.8296741164       -3.5912240436
 H       -12.2372698372      -14.0603253193       -4.3651415313
 H       -10.7285681529      -13.0818000553       -3.7054810841
 H       -10.9358669310      -13.0588809355       -5.4067920686
 H       -15.8833702300      -12.9020198020        0.8642258679
 H       -16.1293312388      -14.6035339222        0.9960090507
 H       -17.5034902896      -13.7164773351        0.9501163083
 H       -16.8853153879      -15.6990029837       -1.9789077409
 H       -18.4512718698      -14.8757542158       -1.7735200037
 H       -17.6538705567      -15.5276736479       -0.3597212482
 Na      -15.9188670584      -12.4422614673       -4.4712632492
 Na        5.2529121324        3.2791902605      -14.1667720870
