232

 C       -15.7494737361        4.0938566529        3.6848426172
 C       -16.4847672310        2.9104265416        3.2488686690
 O       -16.0624640909        2.2324294715        2.3366800210
 C       -17.9095707932        2.6156132522        3.9282829418
 C       -18.4992089320        1.3488949225        3.2633288253
 O       -18.6968293906        1.3579562523        2.0501614304
 C       -18.7571714201        0.0386168420        4.0533854093
 C       -19.0683875874       -1.2124182118        3.1995703090
 C       -17.8543139094       -1.7209694482        2.4324582783
 O       -16.7525356539       -1.1850182330        2.5733205940
 C       -17.9081191518       -3.0426015276        1.4554692287
 C       -17.8144965222       -2.2336133721        0.0845262836
 O       -18.3324295581       -1.1528792053        0.0288267897
 C       -17.0947112214       -2.6438827688       -1.3013522924
 C       -16.5225349992       -1.4042698437       -2.0903514605
 C       -15.2280366215       -1.0029508678       -1.4349719586
 O       -15.1762918313       -0.3206225384       -0.4134223124
 C       -13.8718811461       -1.2804352286       -2.1880183154
 C       -13.8290179412       -2.6975252513       -2.7368573698
 O       -14.1852440163       -3.6972655290       -2.1027970711
 C       -13.0764158394       -2.9045362614       -4.1515352480
 C       -13.6370355758       -3.9898534381       -5.1015147128
 C       -12.5935095612       -4.2902842920       -6.2079625824
 O       -11.3931145486       -4.0878397496       -6.0101628221
 C       -13.0454620580       -4.7190005486       -7.6520860632
 C       -13.3612670062       -3.2344716958       -8.3075090303
 O       -14.4980275593       -2.8072602347       -8.2854272571
 C       -12.1636876220       -2.4036321519       -8.7856119264
 C       -12.5371533147       -0.9582910408       -8.8563035889
 C       -11.5460195405       -0.2614033234       -9.8530984464
 O       -11.4539392226       -0.6413147602      -10.9931059073
 C       -10.6596391219        0.9859091643       -9.2929403352
 C        -9.9469547451        0.7008640972       -7.8126398271
 O       -10.6609419100        0.8710886654       -6.8282562525
 C        -8.5046995447        0.1687482512       -7.6351526065
 C        -7.3461979578        1.2129844125       -7.6281341452
 C        -5.9836560212        0.5522262043       -7.9499533671
 O        -5.9757925428       -0.3961782053       -8.7343495483
 C        -4.7810336644        1.2901089744       -7.4900158558
 C        -4.1072933141        2.0651286051       -8.8018980410
 O        -4.0079295081        3.2664465283       -8.7800402743
 C        -3.7278865435        1.4070973353      -10.0544413630
 C        -2.1340381504        1.4317409536      -10.1671609709
 C        -1.6185302478        1.7395732694      -11.6827161153
 O        -2.4276279219        1.7825425343      -12.5563118712
 C        -0.1158873241        1.9190121028      -12.0393739523
 C         0.7716543770        0.6984499710      -11.6819270573
 O         0.4339688679       -0.1414607858      -10.9185952949
 C         2.0551126285        0.6311584230      -12.3544934306
 C         2.5888641062       -0.7926539391      -12.2385188320
 C         4.1433695001       -0.8287526949      -12.6427274399
 O         4.9887685120       -0.1496967796      -12.1538121660
 C         4.5923972531       -1.9761717944      -13.6614448959
 C         5.5935879457       -1.4148443862      -14.7037947330
 O         5.2491857899       -0.9817975359      -15.7689188587
 C         6.9961198461       -1.1151660362      -14.1673899936
 C         7.9623522178       -0.4202989786      -15.3240945251
 C         7.8552332178       -1.1335055724      -16.7033525078
 O         8.1127336607       -2.3093366542      -16.7936590987
 C         7.5730374405       -0.3645944362      -17.9666354605
 C         8.8947640740       -0.0262778193      -18.6995519104
 O         9.2071932391       -0.5638990029      -19.7225068057
 C         9.9760181622        0.9804350835      -18.1035278503
 C        11.2771051110        0.3760591293      -18.5632318477
 C        11.3754748593       -1.1704924112      -18.4540158386
 O        10.9686760240       -1.8092579368      -17.4720798874
 C        12.3076920894       -2.1021522604      -19.4591079633
 C        11.4373851709       -3.3630947675      -19.9535100005
 O        11.2782345431       -4.2958032549      -19.1518384775
 C        10.6618612455       -3.2700958503      -21.1650875696
 C        10.0627797436       -4.5754730517      -21.6396709314
 C         8.5587280939       -4.6687786823      -21.2020255814
 O         8.1921948945       -4.0417651478      -20.2393678644
 C         7.5291248122       -5.6554470380      -21.8236576069
 C         7.3715087117       -6.7410768176      -20.6422243604
 O         6.2954923525       -6.7176700227      -20.0612121504
 C         8.5171510717       -7.6983374220      -20.3205097501
 C         8.4095065962       -8.2555979886      -18.8099753834
 C         8.8093331999       -7.0822007415      -17.8692996824
 O         9.2333447393       -6.0354294086      -18.3305843043
 C         9.0195642855       -7.3966359102      -16.3370918779
 C         8.6484484188       -6.0807794479      -15.5078108375
 O         9.1393316152       -4.9731345331      -15.7192308033
 C         7.4322137671       -6.1045900441      -14.5805101858
 C         8.1883225572       -8.5590406895      -15.8647824765
 C        10.5317164961       -7.5206839108      -16.1795471976
 C         6.1160896174       -4.9781853125      -21.9925476679
 C         8.0095408030       -6.2894594189      -23.1182751608
 C        12.8755340881       -1.3071724164      -20.7223146341
 C        13.4920313884       -2.5535001763      -18.4649397505
 C         6.6095692489       -1.1329531861      -18.9839387882
 C         6.9510644208        1.1452947640      -17.7984076015
 C         5.4633440086       -2.9748190724      -12.8047984061
 C         3.4097893776       -2.6672866369      -14.4522144208
 C        -0.0252378427        2.1875630430      -13.5655729007
 C         0.4847792450        3.1421158234      -11.1757225994
 C        -5.0631659542        2.4507489642       -6.3972583355
 C        -3.8124596255        0.2345886920       -6.8678605275
 C        -9.6813017100        1.3838304446      -10.4364579438
 C       -11.6548899982        2.1909069364       -9.0393827907
 C       -12.0163257859       -5.5634598671       -8.4743995189
 C       -14.3653539071       -5.4893736395       -7.6355218636
 C       -13.7279979187       -0.1020100550       -3.1844325297
 C       -12.7129072219       -1.2617280296       -1.1512633713
 C       -16.5991666668       -3.9286812444        1.5807569489
 C       -19.1484701339       -3.8363412871        1.4635395483
 C       -17.6561892194        2.4963635325        5.4188168282
 C       -18.7752850342        3.7771531324        3.6584441258
 H       -15.1947673145        3.8545950833        4.5999712955
 H       -16.3735333205        4.9102454798        3.9493247831
 H       -14.9729021482        4.3506242672        2.9425240974
 H       -19.6810002511        0.1023528579        4.6701006220
 H       -17.8746788957       -0.2145577857        4.6294367801
 H       -19.8530449943       -1.1822822190        2.4972656947
 H       -19.4554465416       -1.8688422851        3.9603405514
 H       -17.8711665234       -3.0031684354       -1.9427691597
 H       -16.2561223024       -3.3347499717       -1.2409334084
 H       -17.2802890534       -0.5523982930       -2.0059533707
 H       -16.4431012572       -1.6182335402       -3.1415955426
 H       -12.0188903887       -3.1711661857       -3.9867463145
 H       -12.9934277333       -1.9811265394       -4.7475867831
 H       -14.5387836009       -3.6795655926       -5.6749114811
 H       -13.8767999005       -5.0030315670       -4.6436336062
 H       -11.8507386344       -2.6460508255       -9.7652207641
 H       -11.4064144333       -2.6689203288       -8.0204538370
 H       -12.5378230501       -0.5169382589       -7.9034146878
 H       -13.5439377890       -0.8439035880       -9.3245100651
 H        -8.2359439587       -0.4383369027       -8.5566920083
 H        -8.6697059522       -0.3971071986       -6.7011793830
 H        -7.2889990821        1.8463836276       -6.7187212038
 H        -7.6311193192        1.9389891304       -8.4887615873
 H        -4.1194235806        1.8573316894      -10.9541481618
 H        -4.0962877773        0.3212226267      -10.0285381249
 H        -1.6835161453        0.4547275517       -9.7799178080
 H        -1.6720421161        2.1894863587       -9.5093458984
 H         2.7830963429        1.2144517057      -11.7372455788
 H         2.1000888873        1.1850270083      -13.2233988379
 H         2.0186136667       -1.5194287452      -12.7707431318
 H         2.5225365572       -1.0952708566      -11.2095184668
 H         7.5097211144       -2.0278073420      -13.7610235385
 H         6.7597208530       -0.4111205588      -13.2879554575
 H         8.9778590584       -0.4455877105      -14.9107182321
 H         7.5666831788        0.6206116585      -15.4497310575
 H         9.8611323651        1.0013048816      -17.0134734864
 H         9.8428337249        1.9657283294      -18.6390083226
 H        12.0778353169        0.7728289320      -17.8897728207
 H        11.4642126378        0.7834973248      -19.5946522411
 H        11.2392225464       -2.7979448509      -21.9958778173
 H         9.8001049002       -2.5918906187      -21.0434613568
 H        10.5169364154       -5.4290102724      -21.0392370650
 H        10.1573456419       -4.7583250137      -22.7148074582
 H         9.4521926887       -7.1858006002      -20.5898107079
 H         8.5215374265       -8.6207612874      -20.9619175685
 H         9.0072234657       -9.1815788877      -18.7646408230
 H         7.3615023383       -8.5793970428      -18.6061431649
 H         7.6298215064       -6.6314394974      -13.6491181550
 H         6.6568127411       -6.5806411966      -15.0014569629
 H         7.1572356531       -5.0775537108      -14.3550259174
 H         7.1613482612       -8.4856455078      -16.3086455373
 H         7.9453795680       -8.8479697356      -14.8296432431
 H         8.6570773625       -9.4551461552      -16.1407821404
 H        11.1288043548       -6.6220313460      -16.4621760787
 H        10.7846472639       -8.3457515881      -16.9302857834
 H        10.7327202362       -7.9197653396      -15.1590976299
 H         5.5060456956       -5.6910201331      -22.6069056177
 H         6.1891788384       -4.0855176172      -22.5954964831
 H         5.8399468575       -4.6316968117      -21.0136916517
 H         7.1890905855       -6.5804319016      -23.6985955844
 H         8.6169817560       -7.1491570813      -22.9194657500
 H         8.5335962020       -5.5044965593      -23.6751396605
 H        12.0271734634       -0.8314265395      -21.2853253969
 H        13.6141116396       -1.8968545147      -21.2697811235
 H        13.4822675550       -0.4571586185      -20.2783096800
 H        13.7133806964       -1.7158002143      -17.8129597507
 H        14.4620497759       -2.6176490259      -19.0550000088
 H        13.3142367876       -3.5728803137      -18.1581826404
 H         5.5910588398       -0.9652361602      -18.6634061210
 H         6.7592275687       -2.2333623735      -19.1947083316
 H         6.7924193323       -0.5461430199      -20.0014172423
 H         7.5082399794        1.8806634443      -17.2952782420
 H         5.9548204398        1.1505035768      -17.3866757406
 H         6.8549810816        1.4767053962      -18.8625297969
 H         4.8581079557       -3.4080672720      -11.9914941360
 H         6.2777089243       -2.3583186722      -12.3320978760
 H         6.0147273109       -3.7678340097      -13.2733439597
 H         2.8962031250       -3.3753891603      -13.8092812229
 H         3.6806022452       -3.3467926404      -15.3044521361
 H         2.7075582720       -2.0652046238      -14.9381419334
 H        -0.8456559250        2.7915399211      -13.9962046069
 H        -0.1442777435        1.1696880103      -14.0369988811
 H         0.9626249572        2.6102615699      -13.9335128270
 H         1.6185095165        3.0923825017      -11.1179185894
 H         0.1375676291        3.1821375417      -10.1357181215
 H         0.3760736721        4.0831922324      -11.6616578540
 H        -6.0122716058        2.8761342875       -6.5900358405
 H        -4.2878686868        3.2790878134       -6.4727214924
 H        -5.1148466428        1.9738075140       -5.4664240363
 H        -4.3015617207       -0.3679399977       -6.0387046498
 H        -2.7551470101        0.5305881653       -6.5437412067
 H        -3.5870658843       -0.5726062100       -7.5882942953
 H        -9.0533766329        2.1993874268      -10.0458660017
 H       -10.2023107381        1.6542102381      -11.3660420232
 H        -9.0262992784        0.5749828211      -10.6634416035
 H       -12.0900031494        2.0601589246       -8.0310617586
 H       -12.5161126034        2.1044079724       -9.7727953066
 H       -11.2607696274        3.2418874161       -9.2508176181
 H       -11.0240296259       -5.4132740587       -8.0539010658
 H       -11.8715525239       -5.1030434914       -9.4948991133
 H       -12.2665979526       -6.6127214663       -8.5665790453
 H       -14.3953389319       -6.1556024307       -6.7289088531
 H       -14.4363226919       -6.1030785694       -8.5001052563
 H       -15.2475369283       -4.8455101217       -7.4451435573
 H       -13.7956703746        0.8526829823       -2.6036610123
 H       -14.4732159367       -0.1781351077       -3.9800249871
 H       -12.6911269759       -0.0205189913       -3.7136459998
 H       -12.7003783494       -0.3019264207       -0.5988200959
 H       -11.7382680705       -1.4667794283       -1.5709595518
 H       -12.9611047855       -1.9752255694       -0.3609472549
 H       -16.5768300672       -4.3711652072        2.5051178653
 H       -15.7294374503       -3.2558118981        1.5104275190
 H       -16.4935985412       -4.6339884206        0.7311231989
 H       -19.2304226250       -4.3321503418        2.3968979094
 H       -19.0252243049       -4.5148048203        0.7412883417
 H       -19.9822365858       -3.1985995622        1.2586017005
 H       -16.7715220503        1.8538496077        5.3704695453
 H       -18.4941537347        2.1261430986        6.0283373658
 H       -17.5038217439        3.5316315678        5.8610759948
 H       -18.5133516703        4.6321922002        4.2582573677
 H       -19.7798582198        3.6099562860        3.9947839445
 H       -18.8504784303        3.9879801640        2.5752387492
 Na      -16.9467501340        0.6142491285        0.8677756669
 Na        9.7664793986       -3.8448174305      -17.6776284788
