232

 C       -15.7230853143        4.2351455867        3.8524028412
 C       -16.5348775675        3.0940431310        3.2025793681
 O       -16.0925261525        2.5245066299        2.2227035621
 C       -18.0262936880        2.8919485784        3.8116181241
 C       -18.5547433402        1.5666985810        3.1839316489
 O       -18.7261938048        1.6141389900        1.9895049718
 C       -18.5404519053        0.2423955884        4.0275042446
 C       -18.9135491076       -0.9524604072        3.2572203715
 C       -17.6916644774       -1.6687428459        2.4722582849
 O       -16.6343118901       -1.1479105994        2.5984238112
 C       -17.9559020783       -2.8564649992        1.5324197278
 C       -17.9087961485       -2.2808834982        0.0705439012
 O       -18.5407531170       -1.2643349061       -0.1474483565
 C       -17.2815268995       -2.9276097652       -1.1573149647
 C       -16.5981287681       -1.7068764902       -1.9599126536
 C       -15.3006669615       -1.1591442857       -1.4340588209
 O       -15.3159081139       -0.2582024358       -0.5666083017
 C       -13.9427896483       -1.4168812524       -2.1826039478
 C       -13.8937709444       -2.9250841862       -2.8205473145
 O       -14.6855130463       -3.7762344318       -2.5078120555
 C       -12.6992074702       -3.3680750506       -3.8062785755
 C       -13.4274067237       -3.9250049423       -5.0653076911
 C       -12.4845812163       -4.2185346474       -6.2688338894
 O       -11.2961920243       -4.2124753507       -6.0221222699
 C       -13.0952152471       -4.6554037968       -7.5673203987
 C       -13.4483991717       -3.2658417549       -8.2550769162
 O       -14.6011040325       -2.8952229780       -8.3625866899
 C       -12.2498126277       -2.3816867814       -8.8017319576
 C       -12.2902670403       -0.9409523959       -8.3233201206
 C       -11.5413029481       -0.1128389095       -9.4050555607
 O       -11.6514349224       -0.3805799521      -10.5842776489
 C       -10.7342123891        1.1472368512       -8.9890345416
 C        -9.9935823651        0.8527767460       -7.7020752798
 O       -10.4433901520        1.1175760988       -6.6033664613
 C        -8.6574398764       -0.0475182424       -7.7345433311
 C        -7.3833017177        0.6822092563       -7.1194132643
 C        -6.1091446342        0.3784849909       -7.9118327810
 O        -6.1024019610       -0.3433934324       -8.8661566638
 C        -4.6440791190        0.9590370478       -7.2891266427
 C        -4.2607893841        1.8942250054       -8.5249242045
 O        -4.3755014823        3.1065286019       -8.3729913311
 C        -3.7528871615        1.3884716884       -9.9462866046
 C        -2.3617998696        1.8592754397      -10.3210600063
 C        -1.9157588216        1.5066629202      -11.7103525715
 O        -2.5947684680        0.9137717931      -12.5470888572
 C        -0.5426960522        2.1804581085      -12.2733829902
 C         0.5598906903        1.2571128895      -11.6179510693
 O         0.5488360414        0.9386680247      -10.3976728125
 C         2.0631328713        1.0423143698      -12.4692666307
 C         2.5057113990       -0.3987342660      -12.6162079933
 C         4.0600481586       -0.5623223443      -12.7183135480
 O         4.8263155006        0.2919182853      -12.2299979878
 C         4.6759014780       -1.7656350549      -13.6815952625
 C         5.6826367774       -1.1998234978      -14.7285293467
 O         5.3049714794       -0.9353968810      -15.8370863395
 C         7.2181855123       -0.9542183714      -14.3642066257
 C         7.7697602746       -0.1669133213      -15.4904313417
 C         8.0628354872       -0.9015893682      -16.8193043162
 O         8.3802821752       -2.1007695621      -16.7580970870
 C         7.7812363197       -0.2655671955      -18.2496429248
 C         9.2102550138       -0.1004945504      -18.8984952456
 O         9.2122167334       -0.4179459220      -20.0653675333
 C        10.4277431785        0.6629764954      -18.3350281585
 C        11.8733954412        0.0463724380      -18.6504589922
 C        11.7825038391       -1.4819730582      -18.5976328902
 O        11.0175507632       -1.9475250359      -17.8133023467
 C        12.6377064617       -2.1896405682      -19.7097875407
 C        11.6670553668       -3.3345153763      -20.1306080803
 O        11.3817380969       -4.2077996819      -19.3210261806
 C        10.8216645352       -3.2054203658      -21.4233972063
 C        10.0482640577       -4.5730313402      -21.7175308786
 C         8.7842362243       -4.7537615370      -20.8350184694
 O         8.6096303732       -4.0862516062      -19.8572370403
 C         7.6146421809       -5.7211332267      -21.2745475976
 C         7.2862907860       -6.9153302539      -20.3506611646
 O         6.2715452101       -7.0126023647      -19.7212663783
 C         8.3926955824       -8.0456295952      -20.2754684088
 C         8.5698548426       -8.5158102241      -18.9117954088
 C         8.9794936860       -7.3373042922      -17.9344165528
 O         9.3893968569       -6.2848010315      -18.3952456359
 C         8.8911315509       -7.5729242450      -16.3884303578
 C         8.5714364777       -6.2113772424      -15.7047682580
 O         9.2823807660       -5.2717143820      -15.9048140587
 C         7.2471712001       -5.9334665375      -14.9871382842
 C         8.0121375056       -8.7975791616      -15.9202746302
 C        10.4188217259       -8.0289197482      -15.9249963304
 C         6.3566028920       -4.8432020352      -21.5669610672
 C         7.9224943695       -6.2813966244      -22.7157916394
 C        13.1073698465       -1.3653204253      -21.0007244180
 C        13.9558920209       -2.6937079775      -19.0323100941
 C         7.0448357826       -1.3354566881      -19.1746085417
 C         7.1091057568        1.0616455070      -18.4092921116
 C         5.5676850653       -2.6568129575      -12.7508149242
 C         3.7737595084       -2.6981079080      -14.4160539423
 C        -0.5714461804        1.9427768274      -13.7852343763
 C        -0.1779410960        3.5815671108      -11.8444574584
 C        -4.8801090685        1.8436739501       -6.0816088076
 C        -3.7201993772       -0.2975414608       -7.0477735672
 C        -9.8870422453        1.6174604221      -10.1872999015
 C       -11.7735905709        2.2514924342       -8.6477547378
 C       -12.0601642442       -5.4762518303       -8.3980850263
 C       -14.3233825064       -5.4462835116       -7.2496348378
 C       -13.9255676496       -0.4363363446       -3.3442381511
 C       -12.8206097665       -1.2144156025       -1.2372704009
 C       -17.0272646632       -4.1140622731        1.7966584777
 C       -19.5309227951       -3.3801969473        1.6758586822
 C       -17.8417775453        2.8402532166        5.3661680291
 C       -18.7636943170        4.2053081973        3.3355159707
 H       -14.8949343579        3.8473317970        4.4243499917
 H       -16.2716579758        4.7877633848        4.6509750740
 H       -15.3278821973        4.9299482840        3.1392885603
 H       -19.2269438853        0.4738341594        4.8586869459
 H       -17.4988669434        0.1807459920        4.2670352785
 H       -19.6116839867       -0.5440328879        2.6032006507
 H       -19.4678086730       -1.6859178770        3.8503448783
 H       -18.0768259025       -3.3804066942       -1.7464655106
 H       -16.5046747743       -3.6201395965       -0.9222407699
 H       -17.2829975983       -0.8649683896       -1.8275977153
 H       -16.4046246734       -1.9352195943       -3.0383955661
 H       -12.1691623816       -4.1694387253       -3.2837870524
 H       -11.9093843122       -2.5918320114       -4.0029086600
 H       -14.2603567371       -3.1711764392       -5.3360428614
 H       -13.9344333062       -4.7844540273       -4.6919252133
 H       -12.4233566438       -2.4528462528       -9.8787689030
 H       -11.2772383703       -2.8016209389       -8.6296888668
 H       -11.7964840575       -0.7572209398       -7.3459044424
 H       -13.3242565001       -0.6968978472       -8.1970427194
 H        -8.4946832705       -0.2310241042       -8.8198334948
 H        -8.9210391883       -0.9507709638       -7.1531341027
 H        -7.3873466222        0.2916466376       -6.0202769957
 H        -7.5276153171        1.8052454983       -7.1599826816
 H        -4.5533869509        1.6143446567      -10.6977307580
 H        -3.6946513640        0.2843035352       -9.9169539706
 H        -1.5967893101        1.5013227241       -9.6282332530
 H        -2.3157333794        3.0122944618      -10.2893971544
 H         2.6992258709        1.4778548945      -11.7154867700
 H         2.1437718093        1.7433511312      -13.3016954482
 H         2.0418501693       -0.9564882520      -13.3896722699
 H         2.1590743652       -0.9849733757      -11.7940303239
 H         7.8516255556       -1.8784289290      -14.2252886369
 H         7.1863687267       -0.3664133435      -13.3885224396
 H         8.7721241390        0.2364755718      -15.1746132049
 H         7.0681940772        0.6769574638      -15.6406488570
 H        10.3180215401        0.8180723526      -17.2317320997
 H        10.3119414340        1.7213834199      -18.6539277683
 H        12.4645154351        0.3499746557      -17.7479617030
 H        12.3997736949        0.5157207836      -19.5170980430
 H        11.2988348058       -2.8385708538      -22.3629920066
 H        10.0929786649       -2.3833858312      -21.3789251415
 H        10.7801070117       -5.4098617898      -21.6071777600
 H         9.6338940712       -4.5701703976      -22.7425733991
 H         9.3853974815       -7.7148993161      -20.6852664039
 H         8.0913313015       -8.7260258332      -21.0417698595
 H         9.4359871828       -9.1989078047      -18.8031952733
 H         7.7436619694       -9.1582657025      -18.5339226836
 H         7.3586101770       -5.5617602520      -14.0565585753
 H         6.7335976578       -6.9006042670      -14.7227433186
 H         6.6039550504       -5.4149851753      -15.5926307956
 H         7.1241591783       -8.9091907519      -16.4786178660
 H         7.7717279076       -8.6786238549      -14.8643715922
 H         8.5136484647       -9.8221594218      -15.8468870806
 H        10.9552939411       -7.0464911265      -15.8401733554
 H        10.8564704629       -8.6223552249      -16.7624514657
 H        10.5764202075       -8.5966001764      -14.9904549172
 H         5.5849350314       -5.4011725434      -22.0386154012
 H         6.7393578169       -4.1590598550      -22.3477740313
 H         5.9233753066       -4.3260843503      -20.6510512896
 H         7.0961550660       -6.9200434861      -23.0573775296
 H         8.8108547234       -6.8798523089      -22.7657461130
 H         7.9634439333       -5.5143438890      -23.4312214495
 H        12.3176561103       -0.7313513972      -21.4878866550
 H        13.4188334720       -2.1395363415      -21.7973294694
 H        13.9014890254       -0.6760624355      -20.7060502300
 H        14.8969417385       -2.1472898945      -19.2044176269
 H        14.2141332874       -3.6316493850      -19.5278780151
 H        13.7739548168       -2.8599272797      -17.9252160544
 H         5.9493348767       -1.5162264193      -18.7702252091
 H         7.5410724197       -2.3091102880      -18.9170962623
 H         6.9384720043       -1.1315068226      -20.2237963831
 H         7.7390811709        1.8038540695      -17.8684808752
 H         6.1949028831        1.1249338084      -17.8571745022
 H         6.9649570753        1.3181232515      -19.3875557139
 H         5.0143723078       -2.9525956504      -11.8819420682
 H         6.4232431932       -2.1511346665      -12.3421940553
 H         5.7531342101       -3.6595026545      -13.2078673098
 H         3.2558384135       -3.4922367390      -13.9112823805
 H         4.3304194437       -3.1423716129      -15.2133422220
 H         2.9038687655       -2.1199838499      -14.8767150316
 H        -1.5622345842        2.2945642317      -14.2052949637
 H        -0.5583518642        0.8634852359      -13.9326577170
 H         0.3388308426        2.2914136377      -14.3003295709
 H         0.8250096308        3.9165823545      -12.0770790935
 H        -0.5034917027        3.8274736957      -10.8501640606
 H        -0.8016071220        4.3080552834      -12.3586394048
 H        -5.1433884445        2.8518107422       -6.4442554175
 H        -3.9779073388        2.0337827620       -5.5940357991
 H        -5.5105414401        1.3402152446       -5.3215056408
 H        -3.9995174127       -0.8658857689       -6.1131383354
 H        -2.6451412489       -0.0226156404       -6.9297872053
 H        -3.7083216213       -1.2180436534       -7.7117720770
 H        -9.0628113363        2.1581352354       -9.8062124935
 H       -10.4540591134        2.1547597033      -10.9537179173
 H        -9.4309477468        0.8500931153      -10.8025160818
 H       -12.4354086243        2.1150753234       -7.7536503204
 H       -12.5347370511        2.3377322070       -9.4879028116
 H       -11.2294608073        3.1953488487       -8.5474519436
 H       -11.4075851130       -4.7962296351       -8.9392076466
 H       -12.6410759397       -6.0447991044       -9.1073975585
 H       -11.5041772728       -6.2074502975       -7.7428695211
 H       -14.0852792049       -6.3713549152       -6.7693034106
 H       -14.8179526595       -5.6382364925       -8.2627632884
 H       -15.0157653231       -4.7583594719       -6.7392147704
 H       -14.0700981480        0.5945256170       -2.9122900018
 H       -14.8116948398       -0.6647444625       -4.0562338573
 H       -13.0153215893       -0.4988847506       -3.9513487915
 H       -12.7506754258       -0.1283604683       -1.0199643205
 H       -11.8558453964       -1.5427447735       -1.6240656375
 H       -12.9227082945       -1.7542406920       -0.3105758922
 H       -17.1940609350       -4.4658591029        2.8591056714
 H       -16.0049958282       -3.9878068503        1.5571718519
 H       -17.3707657785       -4.9123743280        1.2278577641
 H       -19.5706182649       -3.9600985890        2.5064215098
 H       -19.7110757387       -4.0210693120        0.8212881074
 H       -20.1987297383       -2.6252631840        1.6062155588
 H       -16.9545910203        2.2366847014        5.7049409253
 H       -18.8338805724        2.4315581642        5.6813286505
 H       -17.6036208923        3.7944541037        5.7313148426
 H       -18.2560027765        5.1010460158        3.7446278347
 H       -19.8077078226        4.1834779142        3.6733029604
 H       -18.7449203943        4.3318374173        2.2912739142
 Na      -16.9171197805        0.5470485757        1.0686836097
 Na        9.5665714605       -3.9052389898      -17.8328374703
