232

 C       -15.5447905141        4.1649767366        3.7402016111
 C       -16.4779114852        3.1600782275        3.0556994316
 O       -16.0493393746        2.5727862562        2.0582391109
 C       -17.9268051357        2.8946854153        3.6100802642
 C       -18.3738476943        1.5017661878        3.1594365063
 O       -18.7360831681        1.3080717161        2.0099713715
 C       -18.5199585979        0.3133453852        4.2497701658
 C       -19.1102334711       -0.8662146216        3.4905300903
 C       -17.9490044828       -1.5015880653        2.6548378365
 O       -16.8505310940       -1.1443807788        2.9340320290
 C       -18.3085874571       -2.6777934370        1.6904360720
 C       -18.1419363266       -2.0255685398        0.2784516762
 O       -18.4100363790       -0.8449864108        0.0412476057
 C       -17.4022205163       -2.7431394091       -0.8599417429
 C       -16.8145736892       -1.7013522625       -2.0071213990
 C       -15.4043218667       -1.2652831838       -1.5794293522
 O       -15.2872635714       -0.4897262204       -0.6241642839
 C       -14.0893092758       -1.5531020380       -2.3786922211
 C       -13.8179924492       -3.0883873496       -2.7033959356
 O       -14.6368899463       -3.8149915820       -2.1977990641
 C       -12.7516698720       -3.5775020955       -3.6437249383
 C       -13.4376816634       -3.7425196514       -5.0244408234
 C       -12.5215031849       -4.3090583904       -6.0900513970
 O       -11.3383751323       -4.2818026288       -5.9066744418
 C       -13.0447012334       -4.6721325474       -7.5328528537
 C       -13.3958134335       -3.2756662058       -8.1279708688
 O       -14.4622258485       -2.6873917132       -7.7508116439
 C       -12.2213104169       -2.5236893503       -8.7836451792
 C       -12.3468538409       -1.0031116126       -8.4372804426
 C       -11.4212761957        0.0487243782       -9.3301221249
 O       -11.3178792096       -0.2205651224      -10.5012628517
 C       -10.8591871454        1.3384891372       -8.7254835552
 C        -9.8533011423        0.8213871820       -7.5882348271
 O       -10.1229209932        1.1215003736       -6.4489951057
 C        -8.5810489088        0.0682076629       -8.0180400130
 C        -7.3718166602        0.5845577066       -7.2140438327
 C        -6.0555122873        0.0793150351       -7.9369978036
 O        -6.1594058207       -0.6067224646       -8.9358426846
 C        -4.6859641463        0.6103997086       -7.4909995703
 C        -4.2088014848        1.7029240529       -8.5052217323
 O        -4.3701731914        2.9296028460       -8.3171052227
 C        -3.4231137440        1.2048348001       -9.7352698062
 C        -2.3564631919        2.0804855005      -10.3268440527
 C        -1.8298369034        1.3319328550      -11.5958146349
 O        -2.1601687629        0.2195475458      -11.8397931025
 C        -0.6287826324        1.9891275603      -12.4290927411
 C         0.6534605156        1.4437849689      -11.7021010513
 O         0.6964657569        1.0129749802      -10.5976575129
 C         2.0086446046        1.6953178264      -12.5766220399
 C         2.4601459754        0.3178982826      -13.0922080013
 C         3.9293021427        0.0358673492      -13.1600009165
 O         4.7522499287        0.7967779496      -12.7182665037
 C         4.5567539919       -1.3855059934      -13.6231338645
 C         5.3066926588       -0.9387303588      -14.8207878421
 O         4.9816556119       -0.7642020368      -15.9711642268
 C         6.7894054765       -0.5627262316      -14.4651063474
 C         7.5617896672       -0.0642416530      -15.7026195668
 C         7.9425693661       -0.8286278488      -16.8878880242
 O         8.5729718403       -1.9080558029      -16.7236494498
 C         7.8745215071       -0.3174093226      -18.2900536479
 C         9.4068213058       -0.3489686303      -18.7941139754
 O         9.4374686693       -0.7467849266      -19.9558053303
 C        10.5511997513        0.4095447234      -18.1669483889
 C        11.9555446895       -0.0534066473      -18.6233332838
 C        11.9283971599       -1.5810886357      -18.6698839811
 O        11.3044995157       -2.1116732514      -17.8082745422
 C        12.6766311712       -2.3275073065      -19.8219279949
 C        11.8754312265       -3.5979770730      -20.3324311021
 O        11.9783099878       -4.6792069956      -19.7393977828
 C        10.8994950390       -3.4438753888      -21.5085451893
 C         9.9823248254       -4.6936350048      -21.7977537318
 C         8.7360597122       -4.7539959260      -20.9186194695
 O         8.7137112339       -4.1956854192      -19.8241240530
 C         7.4566946622       -5.7985905998      -21.3468135325
 C         7.4151416532       -6.8842227985      -20.2435847382
 O         6.7280399257       -6.7687738639      -19.2437534583
 C         8.4446685735       -8.0932809298      -20.3559621146
 C         8.5160825977       -8.6176067558      -18.9080661083
 C         8.9967669192       -7.5168488416      -17.9661433292
 O         9.5090331873       -6.4293138987      -18.3392469603
 C         8.9348900440       -7.6906282067      -16.4018849463
 C         8.4891769997       -6.2056908189      -15.7422216747
 O         9.3009213418       -5.3329920717      -15.6876915282
 C         7.0474164835       -6.0510304248      -15.2780176492
 C         8.0247968153       -8.7916316108      -15.8771592885
 C        10.3166392417       -7.9153778851      -15.8214723809
 C         6.1262743971       -4.9879421849      -21.3629962762
 C         7.6851117839       -6.2431217626      -22.8118734298
 C        12.9811537139       -1.5035684603      -21.0886156453
 C        14.0732497378       -2.7592938791      -19.1739879689
 C         6.9674374036       -1.2536462150      -19.1009813988
 C         7.4027497573        1.1431118471      -18.5770260326
 C         5.3882742769       -2.0486070364      -12.4907618680
 C         3.4983714483       -2.4484615478      -14.1018863815
 C        -0.8513341423        1.3831147983      -13.9106842437
 C        -0.6373699276        3.5184545457      -12.3341417743
 C        -4.7238921829        1.3134923134       -5.9714023904
 C        -3.7603695551       -0.5626555300       -7.3567676774
 C       -10.1258876606        2.1491883863       -9.8624246561
 C       -12.0349018705        2.0627089517       -7.9540515129
 C       -11.9891907520       -5.4658355983       -8.4681263516
 C       -14.3636298129       -5.4644832584       -7.2472759382
 C       -14.1444946615       -0.6343661363       -3.6907091406
 C       -12.9121362758       -0.9789409975       -1.4273258790
 C       -17.3734745634       -3.9011249521        1.9076835236
 C       -19.7559746174       -3.1584328014        1.7062066858
 C       -17.9095040264        3.1297882673        5.0807132005
 C       -18.7950189719        3.9580948307        2.9358250794
 H       -15.0751630833        3.7440130550        4.6501080788
 H       -16.1288938885        5.0370860279        4.1188121401
 H       -14.7580785246        4.6429993335        3.1483410652
 H       -19.1249086986        0.5798525469        5.1689136050
 H       -17.4605721076        0.0493476391        4.5440667304
 H       -19.9836352511       -0.6777149264        2.9108446822
 H       -19.4923746961       -1.5100934014        4.3185106007
 H       -18.1880971494       -3.3253399456       -1.3840934497
 H       -16.6858988340       -3.5011158036       -0.5697219866
 H       -17.4793125603       -0.8378977392       -2.0968986422
 H       -16.7651368647       -2.3146642456       -2.9570173787
 H       -12.4702688212       -4.5655824618       -3.2867949899
 H       -11.8913917115       -2.9198876103       -3.5907793549
 H       -14.0431431985       -2.8153235407       -5.3801024081
 H       -14.2818540245       -4.4304413095       -4.8351319369
 H       -12.0876016188       -2.7514021491       -9.8677310780
 H       -11.2742359042       -2.7873433700       -8.3548369595
 H       -12.0824114802       -0.7642456737       -7.3751674322
 H       -13.3289991043       -0.5781934908       -8.5776547196
 H        -8.3524002907        0.1900705679       -9.0932411335
 H        -8.6595465225       -1.0362601613       -7.8466670267
 H        -7.3782332164        0.1119708112       -6.1874354888
 H        -7.2415680104        1.6960057498       -7.1259070823
 H        -4.2230709062        1.1013310340      -10.5028471611
 H        -3.0695585090        0.2172366902       -9.5616478007
 H        -1.5812192208        2.3515788563       -9.6694182067
 H        -2.8989045220        2.9669617322      -10.7743292038
 H         2.6734896231        2.3214112648      -12.0306000389
 H         1.7275484847        2.2767759232      -13.4714749304
 H         2.0749455588        0.0945705233      -14.0889603827
 H         1.9593338707       -0.4838767571      -12.6024586717
 H         7.3107634376       -1.3509622328      -13.8717300281
 H         6.7521909797        0.3451431810      -13.8130483393
 H         8.4701506509        0.3169326642      -15.2223094775
 H         7.0371529642        0.8261940613      -15.9685990839
 H        10.5395325381        0.2737681146      -17.0647090078
 H        10.2885488326        1.4518094228      -18.1483136505
 H        12.7337429138        0.3248889380      -17.9044707339
 H        12.2106406146        0.3103595887      -19.6268845122
 H        11.3200152909       -3.2088184141      -22.4912838700
 H        10.2624246879       -2.5704459303      -21.5026982775
 H        10.5646511839       -5.5818926275      -21.6763345170
 H         9.6694450127       -4.6781818003      -22.8310643322
 H         9.4861083086       -7.7967287342      -20.7502086824
 H         8.1377498077       -8.9608318060      -20.9671037459
 H         9.2663997731       -9.4277400943      -18.9172726708
 H         7.6478692140       -9.1816258327      -18.5503655019
 H         6.7346245713       -5.0154740366      -15.3130030112
 H         7.0061679517       -6.3514331982      -14.2173234726
 H         6.3824349525       -6.6550290636      -15.8237136554
 H         6.9975956753       -8.7157251152      -15.7222642425
 H         8.4345655947       -8.9494186237      -14.8716291209
 H         8.1438638113       -9.6789564383      -16.5799778321
 H        11.0712631909       -7.4420999888      -16.4000393851
 H        10.6263300041       -8.9258508049      -15.7003921379
 H        10.3076557227       -7.4829832526      -14.8300819145
 H         5.3232930383       -5.6710265344      -21.2531553527
 H         6.1107185946       -4.4072677868      -22.3183723993
 H         5.9607138060       -4.3148907991      -20.5106399723
 H         7.0802495761       -7.1407191364      -23.0703433183
 H         8.6843997307       -6.4670179681      -23.1227598359
 H         7.4528020365       -5.4968310364      -23.5137974909
 H        12.1551991614       -1.0675755310      -21.6146304193
 H        13.5502633768       -2.1027027133      -21.8548452223
 H        13.7280831412       -0.7517811718      -20.8129336836
 H        14.2420177358       -2.3662478654      -18.1112269231
 H        14.8069830462       -2.5926200252      -19.9787160337
 H        14.0925916950       -3.8336519364      -18.9065655637
 H         5.9925256346       -1.5351142827      -18.6232267831
 H         7.5161076882       -2.1559236326      -19.3429872273
 H         6.8184515405       -0.8920117840      -20.1188536446
 H         8.1297598309        1.9482591093      -18.2959333682
 H         6.4306200140        1.4763506811      -18.2256202505
 H         7.3626522723        1.2577023343      -19.6195267840
 H         4.6735453314       -2.3825836609      -11.7464512924
 H         5.9455600919       -1.3272114486      -11.9772871111
 H         6.0220303595       -2.8819448715      -12.8847385291
 H         2.4849304129       -2.4383327563      -13.5840453690
 H         3.9764745931       -3.4093103933      -13.9271043894
 H         3.2184757159       -2.3931091327      -15.2110446610
 H        -1.8962797040        1.4201574816      -14.1905005561
 H        -0.5144239446        0.3604784556      -13.8628292625
 H        -0.2798397988        1.9236356597      -14.6355930333
 H         0.2785873025        3.9989478032      -12.4492414824
 H        -0.8869489380        3.8467146157      -11.3359469770
 H        -1.4383314960        4.0227911539      -12.8954088192
 H        -5.5223974210        0.8672066770       -5.2776174472
 H        -4.9781140624        2.3398156288       -6.1629620891
 H        -3.7175179687        1.3466965650       -5.4383798034
 H        -3.7605168411       -1.0198080322       -6.3537791759
 H        -2.6888788941       -0.4010965521       -7.4305369743
 H        -3.9693237383       -1.3184780995       -8.2137436197
 H        -9.6544885835        3.0844202283       -9.6008850756
 H       -10.8430049942        2.4638865356      -10.6232926622
 H        -9.2982132505        1.5530669729      -10.3405889319
 H       -12.9321842937        1.4456157417       -7.8234932494
 H       -12.4071692844        2.9592158084       -8.3833328001
 H       -11.8017687110        2.1993962930       -6.9407080039
 H       -11.0406498805       -5.3590327318       -7.9474953877
 H       -12.0408907595       -5.0983037163       -9.4422061426
 H       -12.2176369087       -6.5381290924       -8.4381131852
 H       -13.9673999577       -6.1986083986       -6.5694241889
 H       -14.9019629218       -5.7671758360       -8.1719500523
 H       -15.0495122262       -4.7996441789       -6.6946986629
 H       -14.3174670399        0.4461276777       -3.4385227890
 H       -14.9635333622       -0.8843202320       -4.2937773372
 H       -13.1978468834       -0.7860310658       -4.1435259262
 H       -13.0110395075       -0.0042741380       -1.0074916698
 H       -12.0167100845       -0.8829790667       -2.0789373918
 H       -12.6389864652       -1.6893004430       -0.6391564359
 H       -17.6536511095       -4.3588119560        2.9004455237
 H       -16.3540821956       -3.6554355645        2.0027973882
 H       -17.5248339865       -4.6942931449        1.1950188994
 H       -20.0592801422       -3.5034793986        2.6639557276
 H       -19.7578539049       -3.9587192958        0.9914431245
 H       -20.3876238868       -2.3863391937        1.3835735906
 H       -17.4300066304        2.2291290805        5.6049669964
 H       -18.9105393793        3.1484924351        5.4609913416
 H       -17.3411662796        4.0868928462        5.2730759676
 H       -18.2814516019        4.8721862940        2.8892835062
 H       -19.8066701917        3.9723288030        3.2582001279
 H       -18.8543609488        3.6611900207        1.9070987045
 Na      -16.7320413574        0.8498000989        0.8043598729
 Na        9.9618284034       -4.0414741199      -17.8895502334
