232

 C       -15.5322553827        4.1584127381        3.6438245447
 C       -16.3672445740        3.0807945271        2.9169502196
 O       -15.9370715395        2.5399554600        1.9431652990
 C       -17.9121124574        2.8923675548        3.5347801242
 C       -18.5121568655        1.4934518631        3.2345148560
 O       -18.5772777652        1.1898627493        2.0687294679
 C       -18.8500761468        0.4754958021        4.3257527355
 C       -19.0779938304       -0.9417757173        3.7940664327
 C       -17.9906767162       -1.3635505866        2.7925187514
 O       -16.7902276460       -0.9945310209        2.7940665735
 C       -18.3381019951       -2.4917594081        1.7633111070
 C       -18.0459163854       -1.9598121253        0.2360873958
 O       -18.4024588228       -0.8399203925       -0.0363231903
 C       -17.4889408512       -2.6656000332       -0.9584367424
 C       -16.6314920547       -1.8858035661       -1.9686786041
 C       -15.3535624111       -1.1479541152       -1.5380365063
 O       -15.3527493163       -0.3741857244       -0.5742807937
 C       -14.0968437822       -1.4581468391       -2.3469864587
 C       -14.0145543154       -3.0065312667       -2.5510848353
 O       -14.6633460706       -3.8739103521       -1.9292267584
 C       -12.9238309160       -3.4500491239       -3.6532795743
 C       -13.5856716772       -3.9205253480       -4.9374054048
 C       -12.5314623194       -4.3741749657       -5.9935248563
 O       -11.3262072019       -4.3356097018       -5.7085819753
 C       -13.0501465135       -4.7091107097       -7.4772231780
 C       -13.3526654055       -3.1081145461       -7.9802697919
 O       -14.2921004031       -2.5348582231       -7.5930691918
 C       -12.2864318234       -2.3839216855       -8.7662179464
 C       -12.3792564975       -0.9049023452       -8.5436990315
 C       -11.4693881220        0.0143948297       -9.3420537961
 O       -11.0378548866       -0.2968905471      -10.4423724896
 C       -11.0248877074        1.3545917838       -8.5339223836
 C        -9.9175562595        0.7480489446       -7.4700885240
 O        -9.8946433455        1.0527489545       -6.3075274394
 C        -8.6103962122        0.1652415470       -8.1801967233
 C        -7.2976131147        0.6046681298       -7.4786671055
 C        -5.9771805610       -0.0290921759       -8.0195714574
 O        -6.0392914642       -0.7670212429       -8.9653467909
 C        -4.5866744825        0.4691860018       -7.3770677217
 C        -4.0498329847        1.5378031632       -8.3748949272
 O        -4.2270462042        2.7350347317       -8.2701299257
 C        -3.4383444311        0.9665783606       -9.6584015623
 C        -2.5353737289        1.9762422624      -10.3666936867
 C        -1.8107390164        1.2271691581      -11.5429371463
 O        -1.8814660641       -0.0149221433      -11.5882322823
 C        -0.7729811930        1.9919792386      -12.5496610709
 C         0.6733387873        1.6058870194      -11.8731443578
 O         0.6472622137        1.1569986055      -10.6988106713
 C         2.0673551300        1.7658348807      -12.5181311818
 C         2.4390636613        0.5561358405      -13.3052923487
 C         3.9028334981        0.2544926331      -13.2849130175
 O         4.6456439620        1.1494391679      -12.9450313459
 C         4.4362886551       -1.2593519956      -13.6282405427
 C         5.4318803815       -0.9428564777      -14.8369920413
 O         4.8771091657       -0.8949016887      -15.9483446866
 C         6.9140468281       -0.6332762307      -14.6637908173
 C         7.6121911458        0.1974936018      -15.8240712213
 C         8.0967532497       -0.6713647121      -16.9056938081
 O         8.3031733234       -1.7991880306      -16.6319131508
 C         8.0384373010       -0.2539538612      -18.3826388666
 C         9.4140878392       -0.3878562347      -19.0381191066
 O         9.7918320919       -1.1134505730      -19.9566964845
 C        10.4999407282        0.3038531491      -18.1882027149
 C        11.8533101758       -0.1901070255      -18.6718816413
 C        11.9129271794       -1.7823209575      -18.7643975513
 O        11.5419567610       -2.4586841987      -17.8040317625
 C        12.7089163585       -2.4376951860      -19.9233529684
 C        11.8928721932       -3.7870955259      -20.3692970459
 O        11.9734499481       -4.7868242160      -19.7106442494
 C        10.9390630557       -3.5714562255      -21.4978822195
 C         9.9178398497       -4.7208841788      -21.7596920615
 C         8.6576414195       -4.7604758980      -20.8576881073
 O         8.5466210232       -4.1966874903      -19.8115652436
 C         7.5143226942       -5.7771742030      -21.3341444907
 C         7.4760205538       -6.7088316612      -20.0698363336
 O         6.6117123981       -6.5168913417      -19.2362619648
 C         8.3290813369       -7.9422354103      -20.1987615814
 C         8.8840127475       -8.5220497690      -18.8624813569
 C         9.1760172242       -7.3948097456      -17.8992652214
 O         9.7010535548       -6.4185756798      -18.3368313625
 C         9.0208998608       -7.6770771862      -16.3472764258
 C         8.4773585579       -6.2253185750      -15.7972723820
 O         9.1804379879       -5.2259109812      -15.9451698695
 C         6.9904460466       -6.0648410633      -15.3733525028
 C         8.0568243820       -8.8074328402      -15.9998754015
 C        10.4496006026       -7.8740702512      -15.8141095196
 C         6.2417039273       -4.8936252214      -21.3097501230
 C         7.6709226331       -6.5216847407      -22.6420886507
 C        12.9920740925       -1.4863306352      -21.0693829202
 C        14.0501510904       -2.9327149590      -19.3013531855
 C         7.0780853677       -1.2642862820      -19.1563207979
 C         7.3186829778        1.1073629047      -18.4254443175
 C         5.2499021195       -1.8052893221      -12.3384830113
 C         3.2280134382       -2.1391636000      -14.0498892664
 C        -0.9237021809        1.3154020750      -13.9333262064
 C        -0.9988961866        3.5126653996      -12.6302771688
 C        -4.7541365529        1.2005867349       -6.0259192543
 C        -3.7115409672       -0.8598316760       -7.3235766243
 C       -10.4595653463        2.3729968934       -9.4772139777
 C       -12.2082737501        2.0164902036       -7.8262315929
 C       -11.9232139586       -5.3647216783       -8.2343084691
 C       -14.3905793157       -5.4905027365       -7.5799850116
 C       -14.2685497851       -0.8190783274       -3.7434214487
 C       -12.7730974721       -0.9545769620       -1.7636953615
 C       -17.5586424351       -3.7761599695        2.0635407038
 C       -19.9259443294       -2.7867572570        1.6750587381
 C       -17.9836135637        3.1525770673        5.0482832708
 C       -18.6654456558        3.9603553973        2.7318213145
 H       -15.4949235143        3.9548082733        4.6978370557
 H       -15.8539268993        5.1915151898        3.5308598352
 H       -14.5099223493        4.2015286657        3.3228534057
 H       -19.7790382513        0.8271702233        4.7102567428
 H       -18.1233762168        0.6889006367        5.0629111641
 H       -20.0859883927       -1.0271544391        3.3763541871
 H       -19.0904077567       -1.6443524613        4.6099998823
 H       -18.1931315643       -3.2874475831       -1.4939839175
 H       -16.7660195059       -3.3961369953       -0.5715050661
 H       -17.1819434758       -1.0854876832       -2.5047538626
 H       -16.4080654340       -2.6330489299       -2.6848565777
 H       -12.3652160247       -4.3348678931       -3.2740146052
 H       -12.1721769557       -2.6504079196       -3.9234144925
 H       -14.0974840900       -3.1173934118       -5.3714440569
 H       -14.3817995921       -4.6184887254       -4.7785657407
 H       -12.2450169070       -2.6406406633       -9.8009722814
 H       -11.2608085741       -2.6621269277       -8.4232436832
 H       -12.1287123228       -0.5798382834       -7.5761276615
 H       -13.3875320500       -0.5087898117       -8.7492120201
 H        -8.5791020709        0.5101493654       -9.2279344277
 H        -8.4538151642       -0.9298447599       -8.3096364807
 H        -7.3180009518        0.4427708848       -6.3953797312
 H        -7.0054922421        1.6378017844       -7.6654700519
 H        -4.3330548711        0.8295571372      -10.2783362830
 H        -2.9622015014       -0.0604316225       -9.5314864577
 H        -1.7764970065        2.4057622716       -9.6155891242
 H        -3.1190175578        2.7415763263      -10.8286146519
 H         2.8965518112        2.0411639035      -11.8029286290
 H         2.0269224124        2.5813099567      -13.2353181828
 H         2.3282924770        0.6996769419      -14.4191692529
 H         1.8319938813       -0.3702283968      -13.1031011589
 H         7.3043558867       -1.6585176204      -14.5839179822
 H         7.0855114796       -0.1416390490      -13.6993716194
 H         8.4310537421        0.6451801553      -15.2272441627
 H         6.9849686874        1.1083652592      -16.0156363464
 H        10.4846824037        0.3827116468      -17.1013577250
 H        10.4169866042        1.4084546961      -18.4099156991
 H        12.4976834146        0.1444412999      -17.8739784854
 H        12.2013463798        0.3015315300      -19.5966258874
 H        11.1986307858       -3.1693761738      -22.4772798265
 H        10.3645639979       -2.6938531530      -21.1191366101
 H        10.5714170434       -5.6539792869      -21.7037729746
 H         9.4931003919       -4.7307548479      -22.8035640423
 H         9.1139337449       -7.7375898445      -20.8655616318
 H         7.7566691046       -8.7795999699      -20.5928245714
 H         9.7083738044       -9.2098891553      -19.1392589558
 H         8.1596239118       -9.2235433560      -18.4169311754
 H         6.6664775573       -5.2501706124      -15.9689133339
 H         6.6967226550       -5.9371515111      -14.2996055767
 H         6.4238125662       -6.9278286695      -15.7288778665
 H         7.2341400304       -8.9932339407      -16.7236819770
 H         7.4784242485       -8.3964426729      -15.1911279569
 H         8.5789812387       -9.7232550408      -15.9482204299
 H        11.1839017894       -7.0361800069      -15.9111468686
 H        10.9403605176       -8.6923536407      -16.4515250723
 H        10.3752166284       -8.2924305177      -14.7958178390
 H         5.3516975684       -5.5399007175      -21.1189372669
 H         6.1845589558       -4.3042472499      -22.1945265241
 H         6.2303269698       -4.1943922959      -20.4543364755
 H         6.8028434519       -7.1052804023      -22.8109554260
 H         8.5075887862       -7.1865532073      -22.7254333835
 H         7.8528324156       -5.9546483186      -23.5443343606
 H        12.0480433138       -0.9780937529      -21.4544587230
 H        13.4530864723       -1.9785266925      -21.9207843158
 H        13.7551821489       -0.7360990448      -20.8014562457
 H        14.2544792687       -2.2683136146      -18.5516781843
 H        14.7349870287       -3.0241531895      -20.1528725834
 H        14.1160521324       -3.9012387444      -18.7753396387
 H         6.0347921982       -1.1458798481      -18.8122831681
 H         7.3891327644       -2.3341194978      -19.0540626182
 H         7.1292551065       -1.1547439592      -20.2303919658
 H         7.6190427044        1.8436287815      -17.7214618712
 H         6.2618559124        0.9096766429      -18.3722621054
 H         7.4272580180        1.6848880034      -19.3521725563
 H         4.6328641823       -1.9364863349      -11.4449110093
 H         6.0528281713       -1.0285946258      -12.0763956994
 H         5.8142613787       -2.6587012233      -12.6621917332
 H         2.6186781417       -2.3947687220      -13.2050547259
 H         3.4690379561       -3.0762616602      -14.5694098498
 H         2.6312362197       -1.5661806563      -14.7323111267
 H        -1.7641635330        1.7280545008      -14.5447908151
 H        -1.0031236373        0.2239931594      -13.7206590725
 H        -0.0074126573        1.5885877218      -14.5299458865
 H        -0.7757060262        3.9613679321      -13.6493113872
 H        -0.2354813076        4.1145955932      -12.0917435165
 H        -1.9631869710        3.8050603452      -12.3127682674
 H        -4.3928228570        0.6021103250       -5.2287537006
 H        -5.7579957256        1.6211980517       -5.8529407116
 H        -4.1775657432        2.0962575891       -6.0424434166
 H        -3.8349572119       -1.5234985718       -6.4540168758
 H        -2.5971973797       -0.7152470204       -7.2785528594
 H        -3.8501623401       -1.3320817337       -8.2570189151
 H        -9.9375024514        3.2022351902       -9.0097995782
 H       -11.1906655325        3.0027687777       -9.9791460486
 H        -9.8068092108        1.9689177620      -10.1585272358
 H       -13.0231265399        1.4563333147       -7.3944488870
 H       -12.6297162699        2.8150606048       -8.5260578910
 H       -11.9212555484        2.6095045422       -6.8986689359
 H       -11.0248564188       -5.1449424335       -7.6817291515
 H       -12.0108740706       -5.0221912645       -9.3000553640
 H       -12.0138555560       -6.4433554085       -8.1425833650
 H       -14.2569664069       -6.4845735601       -7.1655446167
 H       -14.5533343242       -5.5026862142       -8.6536104668
 H       -15.1605147092       -4.8948370498       -7.0982117260
 H       -14.5421985368        0.2256657475       -3.7046728339
 H       -15.2445821082       -1.3519649074       -4.1010692284
 H       -13.3610751269       -0.9896439562       -4.3697029609
 H       -12.8242509782        0.1654243564       -1.6495870919
 H       -11.8932664984       -1.1192843164       -2.3381482099
 H       -12.6636573924       -1.3084568604       -0.7513624118
 H       -17.3619076545       -4.0635037533        3.0778213133
 H       -16.4941267988       -3.6741682769        1.7132029038
 H       -17.9828262625       -4.5838266248        1.5035794394
 H       -20.2661561073       -3.1704525864        2.6145362871
 H       -20.1388997786       -3.5646113104        0.8867885323
 H       -20.5118310009       -1.8889179452        1.5629660165
 H       -17.1990649693        2.6392140405        5.5448711798
 H       -18.9579934306        2.6923193620        5.4668312821
 H       -18.0823718650        4.1685166242        5.2709246550
 H       -18.1272047212        4.9380821845        2.8709622989
 H       -19.6303122073        4.0411484689        3.2394788579
 H       -18.8704916919        3.8236244293        1.6897254414
 Na      -16.7776594284        0.6085599471        0.7876311070
 Na       10.0480481750       -4.1688527583      -17.8357006812
