232

 C       -15.4526024154        4.1121605053        3.5674305372
 C       -16.3195109341        3.0848781812        3.0055893904
 O       -16.0029371835        2.4661350758        1.9828583079
 C       -17.8160640617        2.9663120136        3.5571955255
 C       -18.4135781422        1.4373514334        3.1989835111
 O       -18.6605436188        1.1828206374        2.0226567160
 C       -18.9234940507        0.5141851416        4.3341830304
 C       -18.9440561662       -0.9566323008        3.8735207313
 C       -17.9773709749       -1.3482994458        2.6990888122
 O       -16.8865935115       -0.8455762841        2.6953819400
 C       -18.4213191454       -2.4173246007        1.5630239461
 C       -18.0716764155       -1.7662572953        0.2455581022
 O       -18.4335674765       -0.6626168904       -0.0489172893
 C       -17.2620103013       -2.8027685295       -0.7603563538
 C       -16.7139898566       -1.9139614521       -1.8936656460
 C       -15.3876001585       -1.2071970441       -1.5057262268
 O       -15.2479995652       -0.3536813795       -0.5939154322
 C       -14.1881688253       -1.5016104011       -2.3658580206
 C       -13.9737674546       -2.9998760754       -2.5124375193
 O       -14.5982562099       -3.7720523418       -1.8064079630
 C       -12.8808408841       -3.5324786940       -3.5821275534
 C       -13.6797836214       -4.1015766618       -4.8313987888
 C       -12.6298586211       -4.3957944776       -5.9052920847
 O       -11.4545084562       -4.4111927898       -5.6533754184
 C       -13.0162750997       -4.5545308498       -7.5160632967
 C       -13.2447997538       -3.1361346175       -7.9008434591
 O       -14.2897112897       -2.5919441439       -7.5114947308
 C       -12.2607188073       -2.4107718080       -8.8442528933
 C       -12.5090100253       -0.9340339936       -8.5194089389
 C       -11.4957586170        0.0448368771       -9.2396985059
 O       -10.9142525565       -0.2777079560      -10.2629861988
 C       -11.0374123271        1.3764909562       -8.5313434239
 C        -9.7911613836        0.9239144929       -7.5605329951
 O        -9.8964457597        0.9548116471       -6.3580919431
 C        -8.5897073725        0.2602114330       -8.2753317087
 C        -7.3408706544        0.7167714222       -7.5358265019
 C        -6.0007100813       -0.0446290697       -7.9893280716
 O        -5.9653440631       -0.8162885708       -8.9225659243
 C        -4.6593462755        0.3692877024       -7.2937300347
 C        -4.0739296468        1.3793540946       -8.4722756918
 O        -4.1145686231        2.5931178891       -8.2025449811
 C        -3.4466826996        0.8460466099       -9.7831134083
 C        -2.6015890761        1.9191522796      -10.5241760669
 C        -1.7706864193        1.1810046461      -11.5397316893
 O        -1.7458424931       -0.0157921457      -11.6124374628
 C        -0.7660306292        1.9499515854      -12.5823619848
 C         0.5971341108        1.6974410585      -11.8990428935
 O         0.6735156603        1.2707161732      -10.7350276055
 C         1.9839334873        1.9101313549      -12.6382033208
 C         2.3091565807        0.6380206427      -13.4006944332
 C         3.8739890126        0.3695434070      -13.3188070348
 O         4.7309254402        1.1978007546      -13.0011033903
 C         4.4293839729       -1.0564275943      -13.6732513308
 C         5.4005330430       -0.9449784799      -14.9285824648
 O         4.9333204006       -0.9436816337      -16.0326607148
 C         6.9628327491       -0.6461394938      -14.5936582403
 C         7.4822977896        0.1938326610      -15.7503939603
 C         7.8756320472       -0.8079632645      -16.9335557246
 O         8.3881431186       -1.9255523745      -16.6758140779
 C         7.9222788343       -0.2885072744      -18.4187058618
 C         9.5039344584       -0.4384141733      -18.9173081184
 O         9.7484084482       -1.1518985034      -19.9059854461
 C        10.6364305840        0.3011761115      -18.1979336632
 C        11.9919001634       -0.2892162323      -18.6474919231
 C        11.9830062743       -1.8915695319      -18.7206978624
 O        11.5304733160       -2.4952026667      -17.7680125102
 C        12.6933135762       -2.4966384244      -20.0065149163
 C        11.8077443710       -3.7156655388      -20.3206939535
 O        11.9761279525       -4.7405462226      -19.6349755935
 C        10.8033484740       -3.5887896757      -21.4629144249
 C         9.9157739705       -4.7940530576      -21.7351607325
 C         8.7390784207       -4.8233704092      -20.8197636356
 O         8.5972491471       -4.0935104625      -19.8667369902
 C         7.5249171699       -5.7761220028      -21.2281893758
 C         7.3044058458       -6.7630686347      -20.0800617697
 O         6.6338892173       -6.4733210450      -19.1111406953
 C         8.3607633149       -7.9941530430      -20.1947821735
 C         8.8582184845       -8.5618899180      -18.8529151382
 C         9.3132676261       -7.4316535106      -17.8979769905
 O         9.8560810574       -6.4055567122      -18.3459324043
 C         8.9789918866       -7.5798261997      -16.3487386736
 C         8.4230613802       -6.1635078555      -16.0081138779
 O         9.1360286870       -5.1697947417      -15.9691433436
 C         7.0538055598       -6.0847317075      -15.4889968680
 C         8.1363434450       -8.7476904994      -15.9742940217
 C        10.4269556881       -7.8149130732      -15.7505121382
 C         6.3308897654       -4.8253834421      -21.3386954301
 C         7.6284081072       -6.5124278265      -22.5567669219
 C        13.0189184749       -1.5136353521      -21.1645717846
 C        14.0336126897       -3.0723129172      -19.4069782232
 C         6.9991963086       -1.3319224160      -19.2581477841
 C         7.4749617124        1.1366117840      -18.6431255164
 C         5.0932258815       -1.6034386780      -12.3048462754
 C         3.3020813059       -1.9402460332      -13.9990769664
 C        -0.8385776236        1.1899870118      -13.9888344595
 C        -1.1159296084        3.4177471078      -12.6063869241
 C        -4.8114544634        1.0014884886       -5.8676195094
 C        -3.7241370834       -0.8481450893       -7.2186035719
 C       -10.4716540620        2.4681211348       -9.3886046132
 C       -12.2100391358        1.9179171766       -7.6728508893
 C       -11.8001472168       -5.2820350821       -8.2757620144
 C       -14.3349126196       -5.2872950488       -7.6490508884
 C       -14.4721321633       -0.8327496190       -3.8537570811
 C       -12.8455617807       -0.9755898967       -1.7702146793
 C       -17.6556928001       -3.6616829162        1.9945264291
 C       -19.9464153287       -2.7372682103        1.5998128439
 C       -18.0011702344        3.3274611824        5.0248614063
 C       -18.6951434074        3.9069615035        2.7177201718
 H       -15.4141701593        4.1048389218        4.6333432591
 H       -15.7046057828        5.1395755242        3.2297033883
 H       -14.4504203810        4.0242808425        3.2276045399
 H       -19.9444841326        0.9559333440        4.5050396696
 H       -18.3840312927        0.8632633364        5.1983511346
 H       -19.9672475052       -1.3060074056        3.8130779286
 H       -18.5112329669       -1.6038987319        4.7288647915
 H       -18.0419637089       -3.5162118325       -1.1512823405
 H       -16.4969173071       -3.5018537760       -0.3582200919
 H       -17.4699427932       -1.1524530844       -2.0921927702
 H       -16.5871553178       -2.4449937446       -2.8265816491
 H       -12.2930958239       -4.3397206334       -3.2507953493
 H       -12.2048824118       -2.7224203594       -3.9417968469
 H       -14.5124762239       -3.4476110663       -5.2295027572
 H       -14.1704739925       -4.9978198587       -4.5994818921
 H       -12.2717718215       -2.6235365337       -9.9174123013
 H       -11.2159484113       -2.6759322142       -8.5626801442
 H       -12.5003903049       -0.6231755901       -7.4996992949
 H       -13.5088615672       -0.6976495999       -8.9671564837
 H        -8.4632954821        0.3332052162       -9.3628837682
 H        -8.6625381646       -0.8112394180       -8.1420337425
 H        -7.3591424870        0.5203196163       -6.4968836440
 H        -7.1251975781        1.7095091678       -7.6487811889
 H        -4.2151604103        0.4658813796      -10.4268216474
 H        -2.8034446135       -0.0002420044       -9.4711836525
 H        -1.9001382298        2.3566028617       -9.8217656782
 H        -3.1952064523        2.6810929402      -11.0206432619
 H         2.7683485108        1.8820647766      -11.8374621170
 H         2.2383052096        2.8007303471      -13.2482619355
 H         2.1283419578        0.5811646158      -14.5199153375
 H         1.7997915037       -0.2932565002      -12.9554171335
 H         7.4653317113       -1.5666071639      -14.5955614992
 H         7.1053170142       -0.2273095576      -13.6027882847
 H         8.2952997387        0.7578116891      -15.3145172624
 H         6.7541842458        0.9781248566      -15.9894110813
 H        10.5071361922        0.2800476492      -17.1325973397
 H        10.6448665167        1.4014104314      -18.3559563895
 H        12.6986976680        0.0303383105      -17.9162305701
 H        12.3069431231        0.1600876712      -19.5855922396
 H        11.2355688821       -3.3856743663      -22.4699753349
 H        10.1764264437       -2.7238269378      -21.3894932876
 H        10.5783349310       -5.6988085799      -21.7841326750
 H         9.4140894775       -4.7248569384      -22.7029957074
 H         9.2570926889       -7.5346479659      -20.6530294413
 H         8.0516371348       -8.8550857384      -20.7525067746
 H         9.7605024540       -9.0645571886      -19.1871848456
 H         8.2678276286       -9.3607587964      -18.4078072705
 H         6.4832052199       -5.1947022270      -15.8050548542
 H         7.2430937728       -6.0706449756      -14.3186625972
 H         6.4501700653       -7.0115561022      -15.5935274918
 H         7.3448518952       -8.8842540878      -16.6749497900
 H         7.6047717689       -8.5948831697      -15.0547094493
 H         8.8405256324       -9.5719206300      -16.2404003793
 H        10.9297409296       -6.8644898048      -15.4519131743
 H        11.1811777376       -8.2792608161      -16.4337777850
 H        10.2917515577       -8.4972871741      -14.8981582971
 H         5.5122777428       -5.4720814909      -21.5050584757
 H         6.4446985194       -4.1318659477      -22.1725292236
 H         6.0563034599       -4.2173935343      -20.4349813586
 H         6.6654207976       -6.9952838014      -22.9313017546
 H         8.4363679336       -7.2567286003      -22.6781015120
 H         7.9316062057       -5.8785392007      -23.3738387103
 H        12.2369054187       -1.1146953413      -21.7781396587
 H        13.7039811251       -2.0428898316      -21.8448954466
 H        13.6293581514       -0.7454711256      -20.8217314479
 H        14.5471681107       -2.2567894064      -18.9628298967
 H        14.4912466641       -3.6621031427      -20.1507671517
 H        13.9390114990       -3.7821768574      -18.5921196297
 H         5.9330443715       -1.2062944943      -18.9471990309
 H         7.2858778625       -2.3067525449      -18.9686015114
 H         7.0464376276       -1.3723471101      -20.2776557043
 H         8.2238167308        1.9137964738      -18.2739094822
 H         6.5021688713        1.2783396574      -18.1442722340
 H         7.2757371381        1.4433289465      -19.6339583706
 H         4.2642500793       -1.8132543133      -11.6534399008
 H         5.7591886910       -0.9060772651      -11.7645933733
 H         5.7116586221       -2.4900686208      -12.5884978710
 H         2.8717984462       -2.2895601512      -13.1033498548
 H         3.5394747031       -2.7768811033      -14.5804522040
 H         2.5895114028       -1.3610037988      -14.6474575810
 H        -1.6377701866        1.7766250181      -14.5226671790
 H        -1.2209236630        0.2291945287      -13.7112394374
 H         0.0180054612        1.1993431872      -14.6840868743
 H        -1.1707623136        3.8587792127      -13.6405896099
 H        -0.3207164350        4.0794589250      -12.2525869573
 H        -2.0698320109        3.6507833068      -12.1333414158
 H        -4.2089251194        0.4352053061       -5.1604962854
 H        -5.7631549450        1.1991648459       -5.5691240589
 H        -4.4004275113        1.9885098510       -5.8835546958
 H        -4.1931694656       -1.5667332961       -6.5838474469
 H        -2.8243737556       -0.6670460137       -6.7179733301
 H        -3.4259944862       -1.2744942993       -8.1700970464
 H       -10.0844689622        3.2869664663       -8.8281745735
 H       -11.2333849115        3.0894594082       -9.8868680745
 H        -9.7064551293        2.2077110317      -10.1137366647
 H       -12.6619609751        1.2604282439       -6.9253958568
 H       -13.0067819015        2.4373187622       -8.2825857520
 H       -11.8785372782        2.7466673975       -7.0099702617
 H       -10.8503835351       -4.8767528064       -8.0030072910
 H       -12.0983253116       -5.2942183088       -9.3143762185
 H       -11.7795195397       -6.3159522516       -7.8339045070
 H       -14.2137598342       -6.2003608552       -7.1755791837
 H       -14.3726038869       -5.4750337922       -8.7532271392
 H       -15.1331414413       -4.6729684059       -7.2808145059
 H       -14.6608340979        0.2403077812       -3.7092691269
 H       -15.4092076839       -1.2180575606       -4.2807062921
 H       -13.6131873864       -0.9376868743       -4.4486244162
 H       -12.8008296571        0.1364145647       -1.8332594278
 H       -11.9720550160       -1.3082215598       -2.2956890330
 H       -12.7748402862       -1.1620801899       -0.7219847220
 H       -17.7820058035       -3.7455674327        3.1488823047
 H       -16.5704383109       -3.5465922617        2.0072911435
 H       -17.8814915139       -4.5947673995        1.5313322835
 H       -20.3360497370       -2.9372875882        2.6490994093
 H       -20.0844889188       -3.6895250950        0.9466866237
 H       -20.5841021873       -1.8842085325        1.2635329757
 H       -17.2810575984        2.8036084369        5.6302676325
 H       -18.9906441435        3.0702926988        5.3770473532
 H       -18.0460741320        4.3719162720        5.1756808489
 H       -18.4134987363        5.0138341044        2.8301014211
 H       -19.7360220424        3.7844590787        3.1453350221
 H       -18.7650429393        3.6838297427        1.6586420965
 Na      -16.7961673880        0.4625962546        0.8309274141
 Na       10.0251891542       -4.2022493338      -17.8175992342
