232

 C       -15.4625790509        3.9664710448        3.4901030023
 C       -16.4459504614        2.9555865250        2.9320156095
 O       -16.0010968406        2.2205930268        2.0862395096
 C       -17.9080679471        3.0252277732        3.4534621317
 C       -18.5770699823        1.6618834741        3.2548515591
 O       -18.7451093283        1.2618978035        2.1387567305
 C       -18.8505646789        0.5899210778        4.4593432392
 C       -18.8611010595       -0.9017094538        4.1057545166
 C       -18.1074668903       -1.2129817544        2.7535537648
 O       -16.9607356706       -0.7547749452        2.6128352485
 C       -18.5906096371       -2.3133584767        1.5866860850
 C       -18.0072874285       -1.7466102152        0.2158023039
 O       -18.6660016913       -0.7484664104       -0.1690701973
 C       -17.0474191513       -2.5537337548       -0.5955969927
 C       -16.7166098752       -1.8727521570       -1.8662954758
 C       -15.4046946569       -1.1325294791       -1.6043640596
 O       -15.2239655060       -0.4397382113       -0.6236442710
 C       -14.2284015494       -1.4296150520       -2.5136354952
 C       -14.0051797913       -3.1538235824       -2.4979556699
 O       -14.4284852272       -3.7799342137       -1.5660137977
 C       -13.0955952356       -3.7574180293       -3.6142992248
 C       -13.7170883621       -4.4442710411       -4.8352027415
 C       -12.5402467116       -4.6377511309       -5.9426139269
 O       -11.3748247900       -4.6325123700       -5.5300871194
 C       -12.9595924975       -4.5520011535       -7.4694822358
 C       -13.3187162315       -2.9337407087       -7.8374076807
 O       -14.2711997445       -2.4137201184       -7.3562409996
 C       -12.3637074023       -2.1945172399       -8.7640639472
 C       -12.6208885399       -0.6950613704       -8.7065095820
 C       -11.4192604968        0.1145425578       -9.1811334449
 O       -10.6535184472       -0.2426275437      -10.0617691483
 C       -11.0747130453        1.4222407987       -8.3560533615
 C        -9.7357682107        0.8392842013       -7.5269622668
 O        -9.7631109276        0.8085418765       -6.3249526140
 C        -8.4859418977        0.5148586691       -8.3933302585
 C        -7.1814920228        0.8018442725       -7.6195931571
 C        -6.0258042743       -0.1305396698       -7.9816360197
 O        -6.2046541367       -0.9842215211       -8.8274583353
 C        -4.5703760411        0.2199597098       -7.2320661271
 C        -3.8991013671        1.2860013467       -8.2661465784
 O        -3.8794981333        2.4548110645       -8.0659240094
 C        -3.4187382794        0.5640440073       -9.6154588566
 C        -2.8573664314        1.5626777230      -10.6237806646
 C        -1.8176956000        0.9441839845      -11.6703681054
 O        -1.6781194492       -0.3071380763      -11.6805718634
 C        -0.8766312519        1.8679438991      -12.5848453334
 C         0.6113089451        1.9367682074      -11.8957879591
 O         0.8071146779        1.6246410955      -10.7145614444
 C         1.7367194269        2.2574934953      -12.8310280407
 C         2.2456837060        0.9061903684      -13.4139950238
 C         3.8211809288        0.7090729702      -13.3873173504
 O         4.7126824043        1.4621513140      -13.1607162780
 C         4.3270738759       -0.9021728910      -13.7014058607
 C         5.3999909308       -0.9009485885      -14.9160477295
 O         4.9535010157       -1.1561704231      -16.0611608324
 C         6.8958970941       -0.4989231016      -14.5651352441
 C         7.5206282185        0.0418676515      -15.8534073130
 C         7.9588881941       -0.9772733195      -16.9480117594
 O         8.3980297244       -2.0729165530      -16.8413189489
 C         8.1276282179       -0.3813630004      -18.4557873375
 C         9.5199828546       -0.6751136436      -18.9473746391
 O         9.8137485737       -1.3066289179      -19.9308297027
 C        10.5762387873        0.0416749571      -18.0693300007
 C        11.9817659219       -0.1891486896      -18.5849270237
 C        12.0918903557       -1.7651842146      -18.6980170185
 O        11.5954413961       -2.4302464684      -17.8034166576
 C        12.7699598437       -2.6594184106      -19.9866951388
 C        11.7158173199       -3.8235328642      -20.3611517432
 O        11.5701368938       -4.7282426395      -19.5864311493
 C        10.9443768755       -3.6541216446      -21.5997131776
 C        10.0231369972       -4.8775106204      -21.7417667511
 C         8.7200860532       -4.8099941117      -20.8824359459
 O         8.7082578237       -4.1930462617      -19.8319170607
 C         7.4902369069       -5.6262311994      -21.2211228974
 C         7.4498289227       -6.8223421059      -20.0224633296
 O         6.8288545139       -6.7320148315      -18.9995086992
 C         8.3526415966       -8.0190092855      -20.2428009154
 C         8.6957099377       -8.5980944870      -18.8530478875
 C         9.3948684083       -7.4859415144      -17.9259877308
 O        10.1064578221       -6.7098864248      -18.4565183923
 C         9.0971569907       -7.4264702073      -16.2766588438
 C         8.3735924316       -6.1279818069      -15.9903972694
 O         9.0003603079       -5.0682611199      -16.0152471231
 C         6.9396932689       -6.0333837337      -15.5056871788
 C         8.2849532486       -8.7298278847      -15.9238420231
 C        10.4875821112       -7.3973881376      -15.5550613479
 C         6.2253989181       -4.7719369049      -21.2056099358
 C         7.5648405771       -6.3305477615      -22.5200549680
 C        13.0030403817       -1.7108865135      -21.2109350492
 C        14.1379564812       -3.2762044532      -19.5003598748
 C         7.1581501111       -1.2780922077      -19.2821563653
 C         7.7458854874        1.1100961519      -18.7965255161
 C         5.0074074076       -1.3402194489      -12.3414589068
 C         3.2736407040       -1.9140316419      -14.1855892714
 C        -0.8209049688        1.1913393872      -13.9770310572
 C        -1.1550320331        3.3925142319      -12.7576456009
 C        -4.8118870552        1.0167970172       -5.9631820879
 C        -3.8180268787       -1.1874667561       -7.1821264996
 C       -10.7782218353        2.5310538182       -9.4354935434
 C       -12.0132130503        1.9365722367       -7.3541922656
 C       -11.7351969087       -5.1952291203       -8.1608133602
 C       -14.2674709238       -5.3949523307       -7.6634353561
 C       -14.5566733193       -0.9243977231       -3.9402345132
 C       -12.9781105638       -0.7826288776       -2.0076103753
 C       -17.8300670964       -3.6226585236        2.1294836163
 C       -20.1992953379       -2.5375545507        1.5553850507
 C       -17.9209345479        3.4437464094        4.9478021134
 C       -18.7525903003        3.9720168421        2.5392800158
 H       -15.2532104394        4.0532736206        4.5735033162
 H       -15.6453904375        4.9683172388        3.1276500301
 H       -14.4628184752        3.8033418606        3.0160328349
 H       -19.7046862417        0.9920490974        4.9885144158
 H       -18.0364539301        0.8640565155        5.1817349361
 H       -19.9113500605       -1.2959929748        4.0322704612
 H       -18.4369575891       -1.4420781725        4.9081439119
 H       -17.4641342193       -3.5457349349       -0.6022385162
 H       -16.1904603815       -2.6627150784        0.0701493617
 H       -17.5797710230       -1.2111183877       -2.1048490788
 H       -16.6014174828       -2.5228929872       -2.7581103347
 H       -12.5887081652       -4.6149587587       -3.1067315132
 H       -12.3165716880       -3.0753849545       -3.9079653226
 H       -14.5120208496       -3.8753457272       -5.3043884607
 H       -14.2493134153       -5.4175658739       -4.4620886704
 H       -12.4679409508       -2.7075505931       -9.7280449077
 H       -11.3277836473       -2.4097632347       -8.5115063528
 H       -12.5408230205       -0.3594241568       -7.6423275614
 H       -13.6116464714       -0.4840028495       -9.0948328995
 H        -8.4405028016        0.9191631660       -9.3958240254
 H        -8.5959469330       -0.5514658093       -8.6572529465
 H        -7.1699142916        0.6133500127       -6.5123763111
 H        -6.8343736633        1.9288782660       -7.6702182321
 H        -4.3019965755        0.2037020072      -10.1521599207
 H        -2.7852347959       -0.2580918607       -9.3553556527
 H        -2.3643319309        2.4344734367      -10.1426801417
 H        -3.7328644497        1.8971574171      -11.1695568099
 H         2.5805171771        2.8000215682      -12.4245332633
 H         1.4622410236        2.7951952539      -13.7197866410
 H         1.9139968641        0.8377171912      -14.4330895218
 H         1.9524793906        0.0511728219      -12.8632083371
 H         7.5009550466       -1.3615118677      -14.1516470571
 H         6.6740149514        0.1761142545      -13.7260010338
 H         8.3860538508        0.6569086883      -15.5953034235
 H         6.8164880894        0.7490332630      -16.2493530509
 H        10.4251191048       -0.3953716519      -17.0413294779
 H        10.4588120467        1.1160080055      -17.9398709129
 H        12.7971659471        0.0056904960      -17.8341659709
 H        12.1933997074        0.4316322992      -19.4783140776
 H        11.4690026281       -3.4359832763      -22.5000473568
 H        10.2441857900       -2.7895654687      -21.5619855525
 H        10.5143313028       -5.6774398418      -21.2217558815
 H         9.8043167692       -5.2013282292      -22.7495343327
 H         9.2579199359       -7.5773573099      -20.6992100435
 H         7.7499922421       -8.6813584590      -20.9581757238
 H         9.4171137225       -9.4470864043      -18.7416206718
 H         7.7525457004       -8.8343897152      -18.3506172497
 H         6.7768076368       -4.9953793594      -15.3481034629
 H         6.7522518427       -6.6221074020      -14.6431271006
 H         6.1894973089       -6.3974686393      -16.2043614194
 H         7.2212153429       -8.4205092144      -16.0897338712
 H         8.3400711374       -8.9027394770      -14.8416264584
 H         8.5886102048       -9.5162271378      -16.5398623137
 H        10.8843350978       -6.4245206917      -15.4899518421
 H        11.2002206727       -7.9912478921      -16.0967013156
 H        10.4594667974       -7.8536194537      -14.6012695895
 H         5.3639810577       -5.1420364930      -21.8448041547
 H         6.4575108101       -3.7591423393      -21.5613933994
 H         5.9184969868       -4.6070924369      -20.1974630992
 H         6.8329172280       -7.0804042686      -22.5869912645
 H         8.5085672026       -6.8095167895      -22.8025989015
 H         7.3040291313       -5.7457714956      -23.4547087902
 H        12.1331462402       -1.0619250022      -21.4187134759
 H        13.1782893941       -2.2117309670      -22.1052997306
 H        13.8217763584       -0.9822116296      -21.1133971569
 H        14.9614415616       -2.6380930553      -19.8519072355
 H        14.1866701275       -4.4021085700      -19.6160277738
 H        14.2900287703       -3.3429369310      -18.3976269359
 H         6.1856778828       -0.9813864437      -18.9831756320
 H         7.1927474281       -2.3815091751      -19.2720080601
 H         7.1804020243       -0.9992247522      -20.3648569583
 H         8.5551324772        1.7540168130      -19.0360606779
 H         7.1018100195        1.5930875443      -18.0514758154
 H         7.0847185119        1.1732786528      -19.7196327942
 H         4.1697611965       -1.3094155825      -11.6530314828
 H         5.7692021903       -0.6528797003      -11.9848075176
 H         5.4443966709       -2.2911095442      -12.4256266479
 H         2.3249538657       -1.8120116881      -13.5846012608
 H         3.5706691492       -2.9866000307      -13.8727011449
 H         3.2233172202       -1.9331504508      -15.2586511012
 H        -1.8015979088        1.2074174469      -14.3202843574
 H        -0.4371675756        0.1841357904      -13.8875453763
 H        -0.2831894221        1.8281269537      -14.6224441074
 H        -1.3429413308        3.7041608402      -13.7705755765
 H        -0.4220863716        4.0943425216      -12.3403091980
 H        -2.1216280611        3.5392975652      -12.3319799247
 H        -3.9021720254        1.0299441090       -5.3802868245
 H        -5.6786547835        0.5225104597       -5.3800829778
 H        -5.1652678474        2.0567857110       -6.0401538810
 H        -4.4104738483       -1.8292320396       -6.4492737432
 H        -2.6825092819       -1.1165896351       -6.9018089016
 H        -3.7763398408       -1.7384168502       -8.1181901744
 H       -10.4102933141        3.5500621349       -9.1744554156
 H       -11.6683381995        2.8547418597       -9.9747962466
 H       -10.1040472732        2.1893272777      -10.2002651538
 H       -11.7270857814        1.6202213300       -6.3776774007
 H       -12.9962281697        1.5833424349       -7.4989673022
 H       -12.2808421004        2.9724676138       -7.3585660145
 H       -10.8931785745       -4.4983348944       -8.2099837968
 H       -12.1389127899       -5.4586381318       -9.1383734944
 H       -11.4538888475       -6.0584932397       -7.6418459081
 H       -14.1614082470       -6.4073219596       -7.1527009583
 H       -14.3540976284       -5.6494349909       -8.6874019550
 H       -15.0102782961       -4.7426654013       -7.1930010066
 H       -14.6438600180        0.1012996584       -3.8615918376
 H       -15.4686663356       -1.4219159642       -4.3395019639
 H       -13.7051105802       -1.1013771352       -4.5894309068
 H       -13.0007713635        0.2936979035       -1.8925997923
 H       -12.1298505013       -1.0659387270       -2.6303694614
 H       -12.7993416609       -1.0775889631       -0.9640561956
 H       -18.2765007717       -4.1974212716        2.8534448017
 H       -16.8126391242       -3.4755517713        2.5207761394
 H       -17.6763413343       -4.3084814680        1.2646821342
 H       -20.5396091437       -2.8647428109        2.5032213196
 H       -20.4956637550       -3.2319575662        0.7995701727
 H       -20.6990142532       -1.5915491959        1.3957178077
 H       -17.4610716423        2.6594209705        5.5727211571
 H       -18.9636291910        3.7475380010        5.3016451957
 H       -17.4816561336        4.4213594957        5.1460551909
 H       -18.4667047871        4.9816520366        2.7815463385
 H       -19.8108947861        3.9380089122        2.6875479987
 H       -18.5307103874        3.7856386120        1.4838154951
 Na      -16.6130914109        0.5820098916        0.8453373082
 Na        9.9501437340       -4.0567347746      -17.9193495220
