232

 C       -15.4386025093        3.9884352408        3.4869062486
 C       -16.4060124798        2.9569409410        2.9310833579
 O       -16.0148225228        2.1415065404        2.1039290731
 C       -17.9308668305        3.0253605140        3.4174239198
 C       -18.5593747136        1.5631889229        3.2659168882
 O       -18.8881624473        1.1498043295        2.1589637710
 C       -18.6716092655        0.6418440434        4.5143645782
 C       -18.9838079291       -0.7543362817        3.9788406967
 C       -18.1443534033       -1.2393777265        2.7994972792
 O       -16.9818016621       -0.8053565014        2.7226476278
 C       -18.6210665964       -2.2607364554        1.7951816534
 C       -18.2534364837       -1.7759841609        0.2960175408
 O       -18.6832630551       -0.7857962649       -0.1602161859
 C       -17.1937402010       -2.5572761451       -0.5354763041
 C       -16.6702947028       -1.8748068102       -1.7961768264
 C       -15.3789605065       -1.1219226978       -1.6498027881
 O       -15.2190782583       -0.3589392703       -0.6716745651
 C       -14.1666891490       -1.5304698783       -2.6160828385
 C       -14.0263398511       -3.0635368703       -2.5089221531
 O       -14.4285879076       -3.7113041108       -1.4980900932
 C       -13.0735071779       -3.7686976976       -3.5879356466
 C       -13.6885968771       -4.4094487459       -4.8110868773
 C       -12.5652302938       -4.4720881554       -5.8859417005
 O       -11.4469850536       -4.8056248882       -5.5988987453
 C       -12.9559640394       -4.4516259576       -7.3946722601
 C       -13.3354025775       -3.0382994761       -7.7284657176
 O       -14.2362918357       -2.4732434509       -7.2001948195
 C       -12.3738300028       -2.2222658462       -8.7080258660
 C       -12.6614578775       -0.7279968229       -8.6991731763
 C       -11.3730309193        0.1024725848       -9.0364749563
 O       -10.6909782982       -0.2503193786      -10.0020087149
 C       -10.9948824351        1.4194296756       -8.2558195141
 C        -9.6299314125        1.0729654585       -7.5584383084
 O        -9.6461294556        0.6950067451       -6.4272320476
 C        -8.3673928552        0.6906852794       -8.4095857857
 C        -7.1678988628        0.8986309797       -7.5368816983
 C        -6.0366182554       -0.0966896944       -7.9743493053
 O        -6.1591321506       -1.0632513913       -8.6890892967
 C        -4.6861675058        0.1662239718       -7.3454333181
 C        -3.8639210960        1.0460896238       -8.3418103964
 O        -3.7102514299        2.2445423335       -8.0379963682
 C        -3.3118580847        0.4778644070       -9.6458229287
 C        -2.9083456104        1.4922927864      -10.6867864346
 C        -1.8024684879        0.8965057376      -11.6001988597
 O        -1.6893549595       -0.2977277795      -11.7435067995
 C        -0.9249157886        1.8215422383      -12.4910933530
 C         0.5668135264        1.9364756621      -11.9834330644
 O         0.8393765486        1.8632094472      -10.7464544389
 C         1.7794483396        2.3042956199      -12.9695636032
 C         2.2957088736        0.9346601891      -13.4855388973
 C         3.7660506002        0.6149895074      -13.5027205747
 O         4.5411338654        1.5460748165      -13.3288403769
 C         4.3502379190       -0.8438296250      -13.6995222455
 C         5.4039149695       -0.8129453917      -14.9265995393
 O         5.0421370781       -1.2145006142      -16.0175335083
 C         6.8464910980       -0.4237022219      -14.7395088874
 C         7.6678325603        0.0535832738      -15.9770255059
 C         8.0919154079       -0.9210055234      -17.0568889279
 O         8.3031349779       -2.0680240547      -16.7439049374
 C         8.0885368573       -0.4175103224      -18.6057957291
 C         9.5896003141       -0.6563613164      -19.0222555740
 O        10.0410003113       -1.3863732601      -19.9299035235
 C        10.6755197037       -0.1039275605      -18.0491344319
 C        12.0182742485       -0.3632392966      -18.7430651377
 C        12.1517636012       -1.8888235211      -18.7516343795
 O        11.7080189355       -2.4649056075      -17.7294368703
 C        12.7114662639       -2.6188332512      -19.9439731300
 C        11.6929567184       -3.7569120341      -20.3344115789
 O        11.5989776394       -4.6349355506      -19.5016520873
 C        10.9840683541       -3.7773240657      -21.6500284539
 C         9.9427912780       -4.9082814255      -21.7327808905
 C         8.7817693493       -4.8596274562      -20.7638671995
 O         8.6944372462       -4.1525565968      -19.8168829591
 C         7.4669114768       -5.7203283148      -21.2059101705
 C         7.5260606354       -6.7808491987      -20.1398257201
 O         6.8431680365       -6.5687117708      -19.1583058066
 C         8.4544281728       -8.0612643450      -20.1780253009
 C         8.6140387588       -8.5424734503      -18.8019065186
 C         9.3327048232       -7.5396854277      -17.8697815399
 O        10.1544457391       -6.7740627702      -18.3286349727
 C         9.1283819847       -7.4326533308      -16.3762688085
 C         8.3341377618       -6.0161080600      -16.0381855021
 O         8.9742775613       -4.9469655688      -16.1037750233
 C         6.8985184306       -6.1108804850      -15.5409767512
 C         8.4102874705       -8.7267979418      -15.7861487840
 C        10.4381213696       -7.2771462870      -15.6521068155
 C         6.2030711036       -4.8872294206      -20.9057956215
 C         7.4453607628       -6.3682859719      -22.6519363085
 C        13.0604587742       -1.6855709876      -21.1768775055
 C        14.0348843964       -3.2844891919      -19.5115486226
 C         7.0659718859       -1.3818366020      -19.3795163073
 C         7.8119717562        1.0750299997      -18.6055978388
 C         4.9490551186       -1.2832781807      -12.3669361960
 C         3.1672822670       -1.7090129894      -14.0591635925
 C        -0.8463595689        1.1406060604      -13.9492665025
 C        -1.4036230968        3.2833498782      -12.6404817477
 C        -4.7556848583        0.8956226980       -6.0240869882
 C        -3.9816815175       -1.1536983050       -7.1681682334
 C       -10.8573488239        2.4979010438       -9.3761431208
 C       -12.0006392706        2.0305065574       -7.2810064157
 C       -11.7569625623       -5.0986400535       -8.2666746369
 C       -14.1574254592       -5.4071527446       -7.6325755364
 C       -14.5054250273       -1.1066900128       -4.1235801698
 C       -12.8535473435       -0.8161823998       -2.1896021848
 C       -18.0574037705       -3.5964118404        2.1767114186
 C       -20.1061953102       -2.3537395241        1.6923361339
 C       -18.0545352097        3.5524895280        4.9092908858
 C       -18.6563938448        4.1090135292        2.5468402639
 H       -15.3339115050        3.7107528170        4.5289381918
 H       -15.8667855488        5.0224543289        3.5104533534
 H       -14.4352124230        4.1894192055        3.1297550303
 H       -19.4672677683        1.1251163535        5.0300426895
 H       -17.8850691696        0.7685290500        5.1926393727
 H       -20.0255833014       -0.9623337848        3.9083983530
 H       -18.6483528962       -1.3937976160        4.7631410891
 H       -17.5192066065       -3.5485848652       -0.7309341853
 H       -16.4202809895       -2.6966356123        0.2079691686
 H       -17.4910614446       -1.2100576951       -2.2109503105
 H       -16.5184883088       -2.5797787168       -2.5855118750
 H       -12.5475423298       -4.5515574605       -3.0249626175
 H       -12.2315626484       -3.0580890325       -3.9590415556
 H       -14.4686098129       -3.7675708589       -5.1908057777
 H       -14.1426467893       -5.3710520893       -4.6634777023
 H       -12.5300256196       -2.6944413081       -9.6530531812
 H       -11.3073369853       -2.4481863369       -8.4856047389
 H       -13.1648099391       -0.3739358763       -7.8396687898
 H       -13.3141065107       -0.6564981619       -9.5906085753
 H        -8.2112085282        1.1630352007       -9.4093963335
 H        -8.5214150139       -0.3689376251       -8.7199388702
 H        -7.3330689204        0.8155314794       -6.3881757552
 H        -6.7875089858        1.9336818771       -7.6529865063
 H        -3.9001777289       -0.3273150504      -10.0807975987
 H        -2.3002302943        0.0958888929       -9.2422920586
 H        -2.4322228532        2.3956385338      -10.1470913863
 H        -3.7019025855        1.8356474661      -11.3219287083
 H         2.5814484722        2.6771566644      -12.3028030302
 H         1.7293179333        2.9769894160      -13.7815812259
 H         1.9623603002        0.8464160042      -14.5077924728
 H         1.9289902251        0.1805341731      -12.7844865269
 H         7.3273447049       -1.3885543628      -14.3998815358
 H         6.7667980479        0.2001769818      -13.8192510873
 H         8.6323776110        0.3905330941      -15.5478939355
 H         7.1866095713        1.0075978646      -16.3263983485
 H        10.6328047232       -0.5667148924      -17.0449156671
 H        10.5848934941        1.0345535272      -17.9133903270
 H        12.8762622091       -0.1502110850      -18.0937515493
 H        12.1397491257        0.2593938871      -19.6739917831
 H        11.6702749295       -3.8884903725      -22.5142859297
 H        10.4229168142       -2.8864734666      -21.9627806908
 H        10.3766985805       -5.9577541178      -21.7142104194
 H         9.3567015776       -4.8067742919      -22.6701373485
 H         9.4391662800       -7.7379868504      -20.4407083816
 H         7.9648545596       -8.7417132344      -20.8853474974
 H         9.2765203805       -9.4244450354      -18.5998685590
 H         7.6216563143       -8.6756261684      -18.3206163877
 H         6.6065874141       -5.3031534684      -15.0007164715
 H         6.5942345304       -7.0923589038      -15.1473460772
 H         6.3592101020       -6.0662941452      -16.4257541061
 H         7.3794032267       -8.7976796135      -16.1444738843
 H         8.3172276748       -8.3927491911      -14.7365557376
 H         9.0492826542       -9.6369625323      -15.8248017963
 H        10.9807978549       -6.4415673977      -16.0737001399
 H        11.0478549792       -8.1865846529      -15.8770747216
 H        10.4268829327       -7.2099851491      -14.6034207583
 H         5.3067901386       -5.2175683919      -21.4359364059
 H         6.3646306424       -3.8885592176      -21.2640760555
 H         6.0524848049       -4.7180668628      -19.7929353258
 H         6.6910093301       -7.0952466996      -22.8468997115
 H         8.3538850886       -6.8714035513      -22.9332099605
 H         7.2183248975       -5.6909777129      -23.4233213844
 H        12.2323716166       -0.9559126698      -21.4488527851
 H        13.2179567815       -2.2604850802      -22.1245670089
 H        13.9116346870       -1.0156367184      -21.0643987412
 H        14.8611619107       -2.8188917867      -20.0085339456
 H        13.9827446704       -4.4126443191      -19.5243767095
 H        14.2590533424       -3.2896746641      -18.3899502211
 H         5.9176687566       -1.2925658584      -19.1638819305
 H         7.3266605401       -2.4847218405      -19.2447985001
 H         7.1373340563       -1.2218528900      -20.4459289019
 H         8.7054593129        1.6839893868      -18.6698109522
 H         7.1831022020        1.5025941893      -17.8406489530
 H         7.2857546515        1.3129372005      -19.5024571937
 H         4.2105372915       -1.1977683923      -11.6089017961
 H         5.8568176719       -0.6645667162      -12.1514320313
 H         5.2763529215       -2.2870072393      -12.4900579411
 H         2.3278586900       -1.3460832694      -13.5387511775
 H         3.2107418788       -2.7283445650      -13.6055299220
 H         3.1123705044       -1.8594523335      -15.1737900895
 H        -1.8479327546        0.7932303289      -14.2445660740
 H        -0.1808783166        0.3322637990      -13.8442498204
 H        -0.4775447069        1.9040209046      -14.6204329300
 H        -1.5581635612        3.5595872564      -13.7338115250
 H        -0.8080194262        4.0520009273      -12.1442068163
 H        -2.3978960095        3.3236052567      -12.3451637576
 H        -3.7221846420        1.3156042956       -5.8326110510
 H        -5.0265325087        0.1903524344       -5.2056765365
 H        -5.4937068657        1.7036175840       -5.8470795569
 H        -4.2922285515       -1.6304164531       -6.1671908224
 H        -2.8750522985       -0.9902119945       -7.2805043966
 H        -4.1870368957       -1.9798620252       -7.9265518489
 H       -10.4490347148        3.4546293188       -9.0564482303
 H       -11.8258700076        2.8282667408       -9.7932307202
 H       -10.2992344067        2.2867341615      -10.2268898394
 H       -11.7576323369        1.8109435795       -6.2920044877
 H       -13.0288703779        1.6179108048       -7.3756922631
 H       -12.2987382579        3.0453235324       -7.4442368895
 H       -10.9011339686       -4.4864669145       -8.1193171290
 H       -12.0900683323       -5.0936975065       -9.3223323789
 H       -11.5993195426       -6.1428391563       -7.9221987820
 H       -13.8954026339       -6.4170994393       -7.3545974989
 H       -14.2094851160       -5.5102056445       -8.7397806448
 H       -14.9872777261       -4.9701285431       -7.0806696928
 H       -14.5623867827       -0.0061851357       -4.1742810942
 H       -15.4549720297       -1.6929477289       -4.4155917963
 H       -13.6969238249       -1.4109788826       -4.8018808994
 H       -13.2116230903        0.2493431027       -1.9786741799
 H       -12.0915081961       -0.8080698537       -2.9413959977
 H       -12.4062021899       -1.0686999833       -1.2531872066
 H       -18.5131172060       -4.1659364876        3.0068010105
 H       -16.9863344387       -3.6026219704        2.4132599752
 H       -18.1472710306       -4.2283292225        1.3746992598
 H       -20.5529266282       -2.7882086524        2.5033915114
 H       -20.3777187802       -2.9382629461        0.8188586520
 H       -20.4603699871       -1.4143233094        1.5382071497
 H       -17.3773334186        2.8889844359        5.5131189412
 H       -19.1275298171        3.5471333595        5.3281457250
 H       -17.8182302119        4.5577976354        5.1211355225
 H       -18.1985101123        5.0936507904        2.7567137618
 H       -19.6650964119        4.2707234188        2.8492652842
 H       -18.6316501725        3.9000986879        1.5486284469
 Na      -16.6316596690        0.6206135782        0.6961746439
 Na        9.8913399143       -3.9826093184      -17.9158203954
