232

 C       -15.4705848633        4.0172894890        3.5441207118
 C       -16.4374599578        2.9949892527        3.0384637912
 O       -16.0249185419        2.2307051103        2.1913247589
 C       -17.9077367347        3.0032361471        3.4227675802
 C       -18.5553041230        1.5941659761        3.2329587707
 O       -18.9238315544        1.1883523113        2.1365039120
 C       -18.5439088771        0.6486406736        4.4565541657
 C       -19.0887220963       -0.6958490282        3.9648836012
 C       -18.0548824119       -1.1901103003        2.8883511449
 O       -16.9394560078       -0.7875374247        2.7908731744
 C       -18.7394134424       -2.2189460458        1.7733085242
 C       -18.2522744736       -1.7080625814        0.4449024642
 O       -18.6981195767       -0.7357764304       -0.1190778016
 C       -17.1772734304       -2.6526195342       -0.4466458277
 C       -16.7437768599       -1.9115840977       -1.7485222825
 C       -15.3171650638       -1.2325713342       -1.6579064339
 O       -15.0819003297       -0.2879622761       -0.9204301225
 C       -14.1910193576       -1.5380605904       -2.6986545485
 C       -13.8881440730       -3.0465223074       -2.4586518231
 O       -14.4460500790       -3.5933048779       -1.5677956965
 C       -12.9330881902       -3.7728798177       -3.4427695911
 C       -13.6206802952       -4.2271634802       -4.8010725194
 C       -12.5744657924       -4.6579993392       -5.8626382852
 O       -11.4525619962       -4.8810785002       -5.5266653842
 C       -12.9697822811       -4.5150664051       -7.4043414464
 C       -13.2767449858       -3.0472725690       -7.6592740538
 O       -14.2391193431       -2.5247967780       -7.0263661353
 C       -12.3852952073       -2.2035768143       -8.6943156322
 C       -12.7128617641       -0.7208555582       -8.6844196418
 C       -11.4308911468        0.1538543547       -9.0005374645
 O       -10.7139059422       -0.2742916446       -9.8709474648
 C       -11.0023821488        1.4484502212       -8.2508393070
 C        -9.6629210834        1.0317888042       -7.6372289435
 O        -9.6114026504        0.7317402478       -6.4465393016
 C        -8.3861104829        0.9195890684       -8.4894034006
 C        -7.1479269562        0.9378362707       -7.6231207151
 C        -6.0446373648       -0.1207934224       -7.9085493821
 O        -6.3373857034       -1.0519769725       -8.6232913529
 C        -4.5905136539        0.0646074812       -7.3064723653
 C        -3.8087565803        0.9593564235       -8.4121904449
 O        -3.5205933748        2.1095082804       -8.1214372190
 C        -3.1467647333        0.3298981208       -9.6026861712
 C        -2.8044822688        1.3956610540      -10.6813821003
 C        -1.7557711830        0.8758362512      -11.6470159009
 O        -1.6848415468       -0.2919428020      -11.7434289770
 C        -0.8623916363        1.8752316710      -12.5543237250
 C         0.6173909222        2.0762813767      -11.9602632783
 O         0.7790354296        2.0608387688      -10.8232914348
 C         1.7407887437        2.2200362322      -12.9761964312
 C         2.2179705556        0.8285498134      -13.5582320807
 C         3.8327036218        0.7492890841      -13.6082201698
 O         4.5703772060        1.7266791115      -13.4767061930
 C         4.2756628319       -0.7344420566      -13.7617783566
 C         5.3422532898       -0.8229990681      -14.9881513312
 O         5.0580033210       -1.2303763905      -16.0385378427
 C         6.9556089388       -0.4221549569      -14.6824066695
 C         7.7403328160        0.0729427007      -15.8985441793
 C         7.9371467434       -0.9614605825      -17.0532118789
 O         8.3094198928       -2.1077194280      -16.7546834765
 C         8.1417131234       -0.4887407818      -18.5734817545
 C         9.6732621871       -0.7124820122      -18.9459765365
 O         9.9252144230       -1.4170508885      -19.9109434703
 C        10.7499857425       -0.0081028304      -18.1335803653
 C        12.1335356584       -0.3442712574      -18.6915133826
 C        12.1837016737       -1.9362543321      -18.7093255080
 O        11.9050449738       -2.6350759455      -17.7754517376
 C        12.7514266758       -2.6499379198      -19.9931357068
 C        11.7509265417       -3.7644812403      -20.3067687453
 O        11.5624554905       -4.6318307447      -19.4354182202
 C        11.0283892752       -3.8521857687      -21.6597683625
 C         9.8901836591       -4.9115002502      -21.9220329329
 C         8.6611830750       -4.8050643945      -20.9404764163
 O         8.6356703283       -4.1966718705      -19.8901590950
 C         7.4570990979       -5.7021643489      -21.1691986836
 C         7.4620222104       -6.8211766478      -20.0995275511
 O         6.8772489097       -6.6816729178      -19.0348508400
 C         8.4972300780       -8.0339369863      -20.0763388679
 C         8.6095113150       -8.5626255661      -18.6864655234
 C         9.3596819261       -7.4850086593      -17.8261350838
 O        10.1481771631       -6.7481775588      -18.3842263706
 C         9.1300030485       -7.3412525553      -16.2601199784
 C         8.2897221368       -6.0953057151      -16.0407396973
 O         8.8144443252       -5.0277696487      -16.1977896211
 C         6.8486935057       -6.1432072322      -15.6561687540
 C         8.4336837189       -8.6472768813      -15.6083974324
 C        10.5431073987       -7.1846954440      -15.6994476315
 C         6.2222419004       -4.8704670328      -20.8876937426
 C         7.4000464996       -6.2683807349      -22.6533766363
 C        13.0638928472       -1.7000615167      -21.1525912709
 C        14.0510300509       -3.3431610350      -19.5001362001
 C         7.1910851868       -1.2827033491      -19.3701241910
 C         7.8091126054        0.9830349291      -18.8207347224
 C         4.9687742089       -1.1665830174      -12.4279904472
 C         3.0594205091       -1.8108382820      -14.0696928256
 C        -0.9239493323        1.1076204263      -13.9291937877
 C        -1.7023473253        3.2145086702      -12.5643914434
 C        -4.5923438081        0.8406855710       -5.9112057421
 C        -3.9311352361       -1.2760164529       -7.1370380553
 C       -10.7888213700        2.5084649927       -9.4069893950
 C       -11.9932341893        1.9686750568       -7.1363404449
 C       -11.7625046018       -4.9388402912       -8.3623769726
 C       -14.2300742655       -5.4432550907       -7.6571348111
 C       -14.5599029489       -1.2689191038       -4.1396343899
 C       -12.8429161563       -0.8421519595       -2.3468198019
 C       -18.2103536351       -3.6445748734        2.1684277530
 C       -20.3152952102       -2.2092502875        1.8287167508
 C       -18.1213352598        3.5311565894        4.8255634103
 C       -18.5455168347        4.1154740759        2.4965872437
 H       -15.0881933155        3.6183016836        4.4751418023
 H       -15.9012689606        4.9943424630        3.7905910754
 H       -14.6147259781        4.2762088326        2.9766589286
 H       -19.0053118814        1.1814547926        5.2809275062
 H       -17.5430794426        0.6435040548        4.7745450309
 H       -20.0194010081       -0.5819653898        3.4964828452
 H       -19.2989344159       -1.3706331450        4.8310629168
 H       -17.8903926675       -3.4300639197       -0.7752644523
 H       -16.4133945240       -3.1978273284        0.1068507946
 H       -17.4592497098       -1.1006617501       -1.9217545105
 H       -16.8454845022       -2.5122275161       -2.6485150266
 H       -12.4083794937       -4.5923420062       -2.9322974037
 H       -12.1369468290       -3.0415920798       -3.8035389347
 H       -14.3812701519       -3.5095500283       -5.1457380814
 H       -14.1342919493       -5.1080395331       -4.6786511766
 H       -12.3465967449       -2.7696226245       -9.6283303086
 H       -11.3958801402       -2.3045372061       -8.2024870632
 H       -13.2661898898       -0.4878562047       -7.8062816373
 H       -13.3489327708       -0.5681219461       -9.5563901140
 H        -8.4989082544        1.7641999731       -9.2224254679
 H        -8.4143478044        0.0421677883       -9.1571775532
 H        -7.5523762149        0.7747325123       -6.5954123430
 H        -6.6921676455        1.8650913598       -7.5333443010
 H        -3.8571969924       -0.4013757859      -10.0303873646
 H        -2.1991887306       -0.1557145636       -9.2278018270
 H        -2.5122364834        2.3388715706      -10.2321718653
 H        -3.6931211589        1.5972925590      -11.3473086427
 H         2.6177182636        2.6498832448      -12.4999712122
 H         1.5283675887        2.8975514692      -13.8471436814
 H         1.9139636255        0.8521113660      -14.6276361146
 H         1.8504143986       -0.0039833195      -12.8850536513
 H         7.3949351537       -1.3254469682      -14.2864354452
 H         6.8289057145        0.2491842434      -13.8368898663
 H         8.7817434840        0.3843069962      -15.6101428603
 H         7.2121371710        0.9879070467      -16.2693780691
 H        10.7096921037       -0.4235155165      -17.1183113424
 H        10.5030289955        1.0935735998      -18.0448587998
 H        13.0054472548        0.1234253769      -18.2452873802
 H        12.1345525876       -0.0449675923      -19.7386762935
 H        11.8389143024       -4.2195737435      -22.3602714515
 H        10.6923723564       -2.9496767242      -22.1703002461
 H        10.3122300981       -5.9645974257      -21.7114086744
 H         9.4642018926       -4.8954975251      -22.9594649705
 H         9.4922073872       -7.7426742002      -20.3796763355
 H         8.0612656773       -8.7619479080      -20.6730694242
 H         9.1949580784       -9.4722108860      -18.6163556080
 H         7.6054773448       -8.6642549165      -18.2545661786
 H         6.6927153717       -5.3993258535      -14.8091748485
 H         6.4951061313       -7.1315893722      -15.4898279266
 H         6.2486716229       -5.7380331612      -16.4701638784
 H         7.6591016647       -9.1129387587      -16.1977423584
 H         8.1087627578       -8.3888092634      -14.5864706307
 H         9.3825440549       -9.2855285579      -15.3790685334
 H        11.1266207182       -6.6402334491      -16.4881655110
 H        11.0523396212       -8.1381724265      -15.4962804700
 H        10.6981503414       -6.5742005022      -14.7629148252
 H         5.3606724030       -5.4493677994      -21.0799577320
 H         6.0727356212       -3.9749555929      -21.5314597447
 H         6.2908192580       -4.4920784537      -19.8511377408
 H         6.4963185900       -6.7990905812      -22.9666497801
 H         8.1592052418       -6.9728515612      -22.8956971956
 H         7.3445631826       -5.4890181731      -23.3486969675
 H        12.1780760884       -1.1964419803      -21.5514129860
 H        13.5700712280       -2.1577114988      -22.0823893462
 H        13.6818224973       -0.8471266826      -20.8307502586
 H        15.0217590071       -3.0557411459      -20.0213154518
 H        13.9211116461       -4.3947098933      -19.4263301407
 H        14.1607044736       -3.2316712317      -18.4461791432
 H         6.1018062202       -1.1722367591      -19.1642273900
 H         7.4068597734       -2.3560848391      -19.2687082883
 H         7.3122618812       -1.0519166080      -20.4563426595
 H         8.4819775844        1.6570484862      -18.2249749650
 H         6.8070524714        1.2558526205      -18.4990371289
 H         7.9587283222        1.2113680530      -19.8474126672
 H         4.2945507942       -1.1327166364      -11.5662151743
 H         5.8432659797       -0.5633474939      -12.3271818496
 H         5.3218576359       -2.2287990042      -12.6228696598
 H         2.2658117697       -1.7823002009      -13.3355872611
 H         3.4739172104       -2.7602694059      -13.9179708578
 H         2.8238001924       -1.7709484852      -15.1586338778
 H        -2.0206627227        0.9111129360      -14.0900521190
 H        -0.4366191338        0.1583860881      -13.7026102988
 H        -0.4411547348        1.6797202311      -14.7519350759
 H        -1.6118298244        3.7930697124      -13.4918267106
 H        -1.2882053672        3.7910487594      -11.7262735143
 H        -2.8370203582        3.1176430776      -12.4833555008
 H        -3.6875858141        1.4945899130       -5.8148531177
 H        -4.6734858869        0.2190669146       -5.0415498525
 H        -5.4463627538        1.5214499211       -5.8564618355
 H        -4.1827388773       -1.7046358385       -6.1872600366
 H        -2.8891000435       -1.2247229449       -7.3741569756
 H        -4.3299561095       -2.0681069962       -7.8655434110
 H       -10.3020671506        3.3728678455       -9.0843489196
 H       -11.6938341366        2.8692760735       -9.8564469870
 H       -10.2187251059        2.2540629372      -10.3219060765
 H       -11.7093759526        1.4898254936       -6.1654508094
 H       -13.0580785895        1.6839661886       -7.2013118904
 H       -12.1433434173        3.0337169875       -7.0822724259
 H       -10.9570696382       -4.3978653664       -7.8475105150
 H       -11.8269507447       -4.6159929217       -9.3866977306
 H       -11.6372569519       -6.0638991802       -8.2834521654
 H       -13.9484953713       -6.4366105626       -7.4783850716
 H       -14.4887074882       -5.4745022852       -8.7300609860
 H       -14.9506615900       -5.0629653599       -6.9632794460
 H       -14.5735856252       -0.1280753247       -4.4035782113
 H       -15.4159815108       -1.8597107378       -4.3831734646
 H       -13.7031078553       -1.7004850504       -4.7143574918
 H       -12.9751062603        0.1894276698       -2.0316485560
 H       -12.1554731068       -0.9093175789       -3.2073201226
 H       -12.2989078395       -1.2836159652       -1.5065586586
 H       -18.4611174381       -3.7949180186        3.2515193153
 H       -17.1549465165       -3.7356277318        2.1535144973
 H       -18.5827741981       -4.5431456154        1.6932819528
 H       -20.6322933708       -2.6104590837        2.8041827819
 H       -20.7493884849       -2.8614533243        1.1146339053
 H       -20.7330758747       -1.2210455343        1.5937815521
 H       -17.3481026525        3.1308186320        5.5045748286
 H       -19.0616621736        3.3472151976        5.1978831650
 H       -18.0263625308        4.6477529308        4.9403378389
 H       -18.0294513189        5.0427087212        2.4288215975
 H       -19.5160749140        4.4055243150        2.8835194466
 H       -18.7089410071        3.6233692243        1.5395752661
 Na      -16.8121317583        0.5648722951        0.5971475295
 Na        9.8762286420       -3.9019759224      -17.8498269523
