232

 C       -15.4333995749        4.0000134558        3.7416424156
 C       -16.4125644466        3.1427024262        2.9805996041
 O       -16.0133230811        2.3098878961        2.1803501033
 C       -17.9026790561        3.1429361847        3.3501841117
 C       -18.4366734996        1.7749783718        3.1894548403
 O       -18.8104369654        1.3805429614        2.0936619250
 C       -18.4429977344        0.7556140728        4.4278224320
 C       -18.9613347263       -0.5915976466        4.0547790380
 C       -18.1952334925       -1.2754353870        2.8158867709
 O       -17.0105187743       -0.9623167760        2.6262386421
 C       -18.8941221865       -2.3314082769        1.7766319706
 C       -18.2069847469       -1.7597169986        0.3447716217
 O       -18.6689615192       -0.6741209179       -0.0097105145
 C       -17.0850690315       -2.5199501930       -0.3807083305
 C       -16.6981947585       -1.9181935141       -1.7289451153
 C       -15.3862138891       -1.1351041653       -1.7043945342
 O       -15.2680172863       -0.1256652099       -0.9850145388
 C       -14.2985485416       -1.5615813288       -2.6451908968
 C       -13.8833499386       -3.1597619064       -2.5078887069
 O       -14.3644946212       -3.8801845152       -1.6142834633
 C       -12.8413914445       -3.8858137099       -3.4603255377
 C       -13.4380741732       -4.4155819471       -4.7697384657
 C       -12.4276648198       -4.6460188988       -5.8393640692
 O       -11.3461802554       -5.1285523349       -5.6014250824
 C       -12.9012334359       -4.4247606894       -7.2805743774
 C       -13.3481209647       -2.9356725717       -7.5248524963
 O       -14.2551470550       -2.5084150525       -6.9153226375
 C       -12.3684604292       -2.1361536110       -8.4878797943
 C       -12.6918188459       -0.6262372679       -8.4384018440
 C       -11.4406218147        0.0332995331       -8.9167305078
 O       -10.9189914644       -0.4916565812       -9.8800127607
 C       -10.9261997649        1.4567410332       -8.2719175337
 C        -9.5425612768        1.1456611491       -7.5968966930
 O        -9.5898392179        0.7804221523       -6.4702658736
 C        -8.2096976506        1.1977701892       -8.4204581976
 C        -6.9327803532        1.1337955583       -7.5025314347
 C        -5.9654884910       -0.0288357413       -7.8688438214
 O        -6.3615077490       -1.0041843919       -8.4561230698
 C        -4.5705946649       -0.0004704012       -7.3509863846
 C        -3.7136756117        0.7882855389       -8.2976589692
 O        -3.4570927320        1.9588617097       -8.0201342316
 C        -3.1242243895        0.0545454577       -9.5509881314
 C        -2.5047436788        1.0950771151      -10.5355360378
 C        -1.6571495690        0.6676413935      -11.7253790844
 O        -1.3107491924       -0.5130769947      -11.7621337202
 C        -1.0283612497        1.8318639431      -12.6249771376
 C         0.3379669415        2.2012653168      -12.1279470062
 O         0.5362007892        2.4516118092      -10.8748036999
 C         1.6067920955        2.2225051859      -13.0876325654
 C         2.1446158247        0.8571038461      -13.5438466492
 C         3.6700240192        0.7441571776      -13.7625361591
 O         4.4721031844        1.6734443539      -13.8624221365
 C         4.2862617265       -0.7281784881      -13.8847404389
 C         5.4101506524       -0.7857421804      -15.0430453262
 O         5.1400660936       -1.1347514266      -16.2111760326
 C         6.9541762553       -0.4587159820      -14.6909439685
 C         7.5878277356        0.0448226296      -15.9780634065
 C         7.9313612702       -0.9513688645      -17.0215895103
 O         8.2971542459       -2.0424707121      -16.6876778424
 C         8.1315507194       -0.4697332449      -18.5758063948
 C         9.6430342052       -0.7059341666      -19.0068921192
 O         9.9382624023       -1.6191031979      -19.7782398269
 C        10.7975190503        0.0967039907      -18.1782631524
 C        12.2172653588       -0.3770275161      -18.6094336938
 C        12.3101293040       -2.0329588855      -18.6809916331
 O        12.0109084439       -2.6596778187      -17.6498597217
 C        12.8606395594       -2.8090652497      -19.9814716106
 C        11.7114318366       -3.8721483224      -20.3674684757
 O        11.4384589518       -4.7128063981      -19.5483709260
 C        11.0103420843       -3.8986365157      -21.7151900063
 C         9.9456593588       -4.9510763517      -21.8521282436
 C         8.7972548258       -4.8202000401      -20.8719370996
 O         8.8105663033       -4.0144281493      -19.9848875907
 C         7.4357001959       -5.7213612828      -21.1189464426
 C         7.4242612351       -6.8099486523      -19.9489228864
 O         6.6785608230       -6.6386099101      -19.0155446693
 C         8.3610902287       -8.0237507922      -20.0885268155
 C         8.7965261842       -8.6193177354      -18.6116883571
 C         9.3976095207       -7.5178949855      -17.7758828564
 O         9.9105030439       -6.5573412896      -18.2961859031
 C         9.1741307079       -7.2956189469      -16.1899695189
 C         8.2383804614       -6.1174410252      -16.1155115428
 O         8.6191682995       -4.9428903681      -16.3151369611
 C         6.7913753063       -6.3464906128      -15.8323369846
 C         8.7124219292       -8.6042760953      -15.4105355426
 C        10.4977798833       -6.8999110252      -15.5636176537
 C         6.1238694584       -4.8659944329      -20.9971132753
 C         7.3139805607       -6.4192607553      -22.4788378983
 C        13.1392132924       -1.9143151350      -21.2117660657
 C        14.2213592518       -3.4789112033      -19.6417161074
 C         7.2694636044       -1.4057843100      -19.3552149802
 C         7.8379847537        1.0733481985      -18.8133728332
 C         5.0209981283       -0.9260799730      -12.3990268941
 C         3.2665302855       -1.9144305767      -14.2268614696
 C        -1.0701806524        1.3050570752      -14.1636958123
 C        -1.7826858705        3.2073727838      -12.6376778560
 C        -4.4347959204        0.6171747109       -5.9583547585
 C        -3.9971133715       -1.4488297650       -7.1978639168
 C       -10.9513879573        2.5907408337       -9.2864533538
 C       -11.9869329270        1.8632198827       -7.1619948774
 C       -11.8088239471       -5.0981582570       -8.1626286537
 C       -14.2152099258       -5.2803868047       -7.6640425056
 C       -14.8817813626       -1.1800600062       -4.0944897505
 C       -12.9566189013       -0.7352518314       -2.5134892350
 C       -18.5144200454       -3.6797917955        2.2286598877
 C       -20.4464981110       -2.1107082255        1.7610053195
 C       -18.1278116804        3.6902792777        4.8060278723
 C       -18.5603329298        4.0479568192        2.3293596401
 H       -14.8061659346        3.4912587197        4.4655703454
 H       -15.8668320676        4.8884136681        4.2264441815
 H       -14.6847557524        4.3548459319        3.0069584391
 H       -18.8834006866        1.1449256767        5.3791544007
 H       -17.3270770278        0.7332710705        4.7496520045
 H       -20.1066574255       -0.5768610408        3.9188581668
 H       -18.8290683085       -1.1569954966        4.9754491573
 H       -17.4242147042       -3.5649818045       -0.4847691390
 H       -16.2620168241       -2.5782074787        0.3645616744
 H       -17.4130977913       -1.2103528662       -2.1814119630
 H       -16.6872767189       -2.6987938160       -2.4875042469
 H       -12.6190056102       -4.7289904690       -2.8476750220
 H       -11.9185528208       -3.4439796078       -3.7172749456
 H       -14.0415853981       -3.5986082588       -5.1899437262
 H       -14.1516514487       -5.3266012178       -4.5548040842
 H       -12.6836801982       -2.6435451431       -9.4070535646
 H       -11.3199301147       -2.3803248052       -8.2716074500
 H       -13.0488865161       -0.3796723808       -7.4038440819
 H       -13.5343767692       -0.4072299599       -9.1283928759
 H        -8.3692078235        2.0678033669       -9.0225144620
 H        -8.2249738752        0.3735633692       -9.1243497077
 H        -7.3384618138        1.1980820110       -6.5123293945
 H        -6.2694821803        2.0569814726       -7.5714479700
 H        -3.8453152500       -0.5956235131       -9.9979931615
 H        -2.3068850024       -0.4830571186       -9.1342261092
 H        -1.8591793962        1.7682944090       -9.9392606143
 H        -3.2065848260        1.7586265840      -10.9840363882
 H         2.4558018176        2.7530755772      -12.5807826818
 H         1.2770436692        2.8804246754      -13.8803745507
 H         1.7071614692        0.6240066608      -14.5092308399
 H         1.9164889323        0.2055759386      -12.7278131345
 H         7.2932348021       -1.4317659224      -14.3441544495
 H         6.9598115267        0.2276712746      -13.8701373862
 H         8.5507993122        0.4372224636      -15.7156795390
 H         6.9890726142        0.8689099729      -16.2773182612
 H        10.8286440630       -0.0336559145      -17.0932087578
 H        10.6918623865        1.1275596538      -18.4554633808
 H        12.9192107708        0.0296279520      -17.8689967231
 H        12.5689976965        0.0344206944      -19.5704905695
 H        11.5993848194       -3.9304837783      -22.5994403631
 H        10.4669712024       -2.9287508946      -21.7696588607
 H        10.3520150545       -5.9135810195      -21.7883166716
 H         9.3672738437       -4.9021190907      -22.7571601004
 H         9.2550733858       -7.6246208345      -20.5907196147
 H         7.9101786111       -8.9306228088      -20.6366050710
 H         9.5663853824       -9.3535585272      -18.8822123511
 H         7.9829336653       -9.0371982670      -18.0511450622
 H         6.5901524746       -6.2018543258      -14.7841669728
 H         6.5111719781       -7.4131332982      -16.2255678908
 H         6.1447784303       -5.5886020000      -16.3085067269
 H         7.7502192819       -8.8661388221      -15.8782890605
 H         8.7681459508       -8.5870832302      -14.3182332651
 H         9.4538476424       -9.3069992368      -15.5952845280
 H        11.1218851398       -6.2849085879      -16.2135026399
 H        11.0766790988       -7.7969862448      -15.2319493448
 H        10.3926122989       -6.3018801608      -14.6786792220
 H         5.3127027021       -5.3970509059      -20.4672407118
 H         5.6271595145       -4.5867937641      -21.8749113847
 H         6.3908717801       -3.9701519157      -20.4396484790
 H         6.3769090540       -6.9410286211      -22.6745924479
 H         8.0016794861       -7.2979636333      -22.5178360179
 H         7.3015650910       -5.7706944818      -23.3994125327
 H        12.2771683676       -1.3431913879      -21.5348931433
 H        13.4457405013       -2.4794521859      -22.0159476410
 H        13.8951154474       -1.1831197107      -21.0570067838
 H        14.8301328554       -3.4038834162      -20.4880685216
 H        14.2197357018       -4.5927005734      -19.4877030596
 H        14.6925589526       -3.0429988976      -18.7199405360
 H         6.2001229221       -1.3237342766      -19.1766753327
 H         7.4763961519       -2.3746438149      -18.9877953319
 H         7.3848250098       -1.3949004395      -20.3741669606
 H         7.3273842380        1.6676228411      -18.0611857365
 H         7.1206208779        1.2185382965      -19.6511884799
 H         8.8497598031        1.5171419591      -19.1212511919
 H         4.2660894325       -1.1127168989      -11.6295193506
 H         5.5454561219        0.0650517710      -12.2776818740
 H         5.6965522670       -1.7403154830      -12.4004824483
 H         3.0550395963       -2.5401006003      -13.3658019237
 H         3.8061546557       -2.5283802339      -15.0282776219
 H         2.4283605932       -1.4281422258      -14.6965762379
 H        -2.0484954804        1.4039600951      -14.5992727319
 H        -0.7708708280        0.2606454000      -14.0549374233
 H        -0.2838901250        1.8346798273      -14.6800426826
 H        -1.0205626914        4.0324049738      -12.7253810016
 H        -2.3824528831        3.3484181428      -11.7222826279
 H        -2.3669010014        3.3639957801      -13.5061586060
 H        -3.4213040943        0.7059504284       -5.6487425916
 H        -4.8660653752       -0.0331190854       -5.1872812396
 H        -4.8344459542        1.6173743310       -5.9258044779
 H        -4.6147387384       -2.0848146655       -6.6035363925
 H        -2.9300438608       -1.3823296371       -7.0018252053
 H        -4.1583526233       -1.8800918424       -8.1366771308
 H       -10.2527534312        3.4276095230       -9.0026915726
 H       -11.8955981220        2.9792386969       -9.6929955143
 H       -10.5375124489        2.3424568481      -10.2285041253
 H       -12.4424534841        1.1163154773       -6.5598476082
 H       -12.8602996755        2.4490303652       -7.4928144927
 H       -11.4901299963        2.6295443773       -6.5211382229
 H       -10.8607914164       -4.6547931388       -7.9307466097
 H       -12.0377763242       -4.9077507715       -9.2384727649
 H       -11.8699461518       -6.1362066790       -7.9666921750
 H       -13.9550890141       -6.3452040947       -7.5189408074
 H       -14.4431025758       -5.0978335054       -8.6981896231
 H       -15.0183108101       -4.9483757170       -7.0275033564
 H       -15.3044002933       -0.2820861675       -3.9139309024
 H       -15.5876441323       -1.9383640105       -4.4595910196
 H       -14.1438960210       -1.0669230492       -4.8105323864
 H       -13.0830830632        0.3580759477       -2.6492484580
 H       -12.3340843892       -1.1260129461       -3.2874454654
 H       -12.3694717096       -0.8628905439       -1.6197516820
 H       -18.6925154224       -3.7927131605        3.2954282618
 H       -17.4007426129       -3.8460788109        2.0597379224
 H       -18.9733537444       -4.5852584467        1.8568079312
 H       -20.8350837694       -2.3316267458        2.7799420713
 H       -21.1132862968       -2.7916882501        1.0764134848
 H       -20.6463880818       -1.0815409368        1.4116188746
 H       -17.6718033002        3.1358676518        5.6063662719
 H       -19.2738793785        3.5922795529        4.9418764106
 H       -17.7990337058        4.6543806944        5.0361412729
 H       -18.0097035531        5.0335725778        2.2005596243
 H       -19.5490730293        4.3966376625        2.7034392921
 H       -18.7266793062        3.4705604130        1.4243620542
 Na      -16.9521045738        0.6147333897        0.6809993832
 Na        9.8821150596       -3.7742777351      -17.8334688346
