232

 C       -15.2790337923        3.9952367942        3.7220556917
 C       -16.2826324222        3.1173353032        3.0493150266
 O       -15.9582619532        2.4282724433        2.1022433985
 C       -17.9563359172        3.2336997707        3.3278520043
 C       -18.4458595408        1.7074957979        3.1619589152
 O       -18.8026169732        1.2660291216        2.0783304013
 C       -18.3890106345        0.6981718598        4.3631549779
 C       -18.8734648157       -0.7113685556        3.9963957664
 C       -18.1866845257       -1.2738143105        2.7492990097
 O       -17.0127629499       -1.0121513699        2.5034895807
 C       -18.9370609349       -2.2204916090        1.8130870953
 C       -18.3577218679       -1.7346965212        0.4556585634
 O       -18.7023068325       -0.7642953043       -0.1488856304
 C       -17.0634711905       -2.5253090249       -0.1778400159
 C       -16.7994115088       -2.0106663491       -1.6330035593
 C       -15.4699235557       -1.1711990244       -1.5990452099
 O       -15.4062935346       -0.1200661938       -0.9362490400
 C       -14.2872345039       -1.6338498832       -2.6484091376
 C       -13.9376299780       -3.1748993769       -2.5114977811
 O       -14.4650753671       -3.7888783939       -1.6317473546
 C       -12.8595228592       -3.7756961348       -3.4429528905
 C       -13.4912375411       -4.4859432673       -4.6675752437
 C       -12.4264543764       -4.7616255632       -5.8242331909
 O       -11.3323790646       -5.1732164908       -5.6124062139
 C       -12.9195045365       -4.5353967710       -7.3062684034
 C       -13.2589051292       -3.0544952613       -7.4282757182
 O       -14.2163965534       -2.4878400292       -6.8997892253
 C       -12.4120776980       -2.2088874290       -8.4597575203
 C       -12.6494503975       -0.6904609900       -8.2415501331
 C       -11.4348444028        0.0857294838       -8.9275237832
 O       -10.8870814014       -0.3636768182       -9.9276100227
 C       -10.8929964327        1.4585722145       -8.2947089342
 C        -9.4922434139        1.1672547098       -7.5429122446
 O        -9.4532258322        0.7830974976       -6.3830964852
 C        -8.1757576014        1.2578072659       -8.3630573552
 C        -6.8911425273        1.2414400018       -7.4587998394
 C        -5.9883473273       -0.0794594745       -7.7650543276
 O        -6.4658222436       -0.9322008506       -8.4911500951
 C        -4.5522877287       -0.1184108112       -7.2309114304
 C        -3.6401480845        0.7120613163       -8.2960579102
 O        -3.4113132386        1.9086431243       -8.0962679407
 C        -3.0368653396        0.0937272671       -9.5961458080
 C        -2.3314475896        1.1156281018      -10.4319571575
 C        -1.5332725975        0.5841831587      -11.7386946446
 O        -1.1182514609       -0.4887322510      -11.8774536793
 C        -1.0489373248        1.8120342411      -12.7473139088
 C         0.3673120664        2.1361789187      -12.1896969236
 O         0.3496824798        2.5865222837      -11.0903719279
 C         1.6809893592        2.1574007002      -13.0599725957
 C         2.1023552170        0.7173610252      -13.4525683792
 C         3.6336999908        0.6454066692      -13.9270979973
 O         4.2784995077        1.7014810063      -14.0580328077
 C         4.3082865790       -0.7417086726      -13.9666718222
 C         5.4594540449       -0.7737847098      -15.0349392408
 O         5.1217216301       -0.9818002631      -16.1345650537
 C         6.9637418205       -0.4215441892      -14.7750596808
 C         7.6218896699        0.2775826396      -16.0373472067
 C         8.1039627677       -0.8338088236      -17.0257161750
 O         8.3417275652       -1.9926910024      -16.7366945572
 C         8.2235621473       -0.4708870199      -18.5772181429
 C         9.7323467263       -0.7491885181      -18.9404726979
 O        10.1012483827       -1.6834250650      -19.6725352441
 C        10.8564440327       -0.0372767948      -18.2426806363
 C        12.2316816066       -0.5500358482      -18.7375505690
 C        12.3271582955       -2.0551135124      -18.6848950488
 O        11.9888370141       -2.7058787883      -17.6807033438
 C        12.8457751302       -2.8112746611      -20.0169278578
 C        11.7127664095       -3.8580300893      -20.3250100175
 O        11.5216469683       -4.7842942308      -19.5444993376
 C        10.9246515093       -3.7961738053      -21.6809944978
 C         9.9483603663       -5.0427560094      -21.8705911220
 C         8.7336613409       -4.8345568111      -20.9090596563
 O         8.7279986248       -4.0611110595      -19.9922085995
 C         7.5007229976       -5.7646559885      -21.0321232673
 C         7.4393339019       -6.7383639046      -19.8515043877
 O         6.5463585419       -6.6135722272      -19.0040049363
 C         8.3326083699       -7.9921535962      -19.9482485646
 C         8.8188407882       -8.5065549073      -18.5893516998
 C         9.3140323237       -7.3131413756      -17.7857507492
 O         9.8734881755       -6.3848617803      -18.3216358570
 C         9.1607585943       -7.2863525865      -16.2211004901
 C         8.1224643598       -6.0952723665      -16.1407663029
 O         8.5491463604       -4.9645925746      -16.3232679097
 C         6.6721876906       -6.5303243577      -15.8917515296
 C         8.8288138004       -8.6630415267      -15.4918793920
 C        10.4925608758       -6.6948967164      -15.4764291337
 C         6.2957711797       -4.8310656857      -20.9184298887
 C         7.4543322000       -6.5965459079      -22.3468019685
 C        13.0955306236       -1.8841764358      -21.2146119740
 C        14.0820835542       -3.5669513804      -19.6294709161
 C         7.1806721749       -1.3886772096      -19.3472388721
 C         7.8111422446        0.9795188070      -18.7502941661
 C         4.9122319953       -0.8790610883      -12.5583080636
 C         3.2717118892       -1.9195005648      -14.1617433476
 C        -1.1142642078        1.2909546923      -14.2833104160
 C        -1.8468209843        3.1750851238      -12.5975753544
 C        -4.4012612150        0.5188071566       -5.7737302908
 C        -4.1153799186       -1.6181429515       -7.2395004119
 C       -10.9397453394        2.5440249300       -9.3743466729
 C       -11.8773666105        1.9271613298       -7.1196448556
 C       -11.7468631183       -5.0512671535       -8.2780841723
 C       -14.2835547250       -5.1911666195       -7.5063117444
 C       -15.0036523440       -1.2853275135       -4.0134557270
 C       -13.0525822568       -0.7340375167       -2.5189677976
 C       -18.5985067161       -3.6766537106        2.1964876970
 C       -20.4385220140       -2.1084827882        1.5895972124
 C       -18.1652147362        3.9225545331        4.7154015086
 C       -18.6083132900        4.2562587943        2.3141488619
 H       -14.8755498344        3.4280086081        4.5741541098
 H       -15.7263754113        4.9238645810        4.2137703870
 H       -14.3628579134        4.2169512407        3.1571677762
 H       -19.0940175593        1.0991437831        5.1078008153
 H       -17.4616723882        0.8549771142        4.9025230025
 H       -19.9424891302       -0.6766706403        3.9145572351
 H       -18.6619441025       -1.3755701069        4.8577234216
 H       -17.1248888750       -3.5881463666       -0.1347768695
 H       -16.2066052954       -2.2709420582        0.4394735292
 H       -17.5425822711       -1.2828947374       -2.0842291097
 H       -16.7903193073       -2.7972693361       -2.3608471808
 H       -12.3138985951       -4.4949528476       -2.8901693613
 H       -12.0985338978       -3.0397499134       -3.8613052404
 H       -14.2879005241       -3.8094445830       -5.1051576432
 H       -13.9535324745       -5.3749025121       -4.2585798725
 H       -12.6008157884       -2.5831543771       -9.4474065773
 H       -11.3592528969       -2.3902502247       -8.1207523131
 H       -12.7885046050       -0.5697403627       -7.1861516683
 H       -13.6316228657       -0.3558802769       -8.7196829109
 H        -8.2641834095        2.0613480630       -9.1159636705
 H        -8.2560953316        0.3198394103       -8.9382056387
 H        -7.2799157634        1.4242698241       -6.3653869720
 H        -6.3372052988        2.1887567427       -7.6376891819
 H        -3.8044096017       -0.3137816531      -10.1978025035
 H        -2.3526131624       -0.7013306031       -9.2239621078
 H        -1.7058030475        1.8676355778       -9.8684186287
 H        -3.0525173420        1.7271184795      -10.8861004810
 H         2.4505893149        2.7015554030      -12.4993531037
 H         1.3966684259        2.7566784380      -13.8764658137
 H         1.5640433994        0.5876075888      -14.3355914693
 H         1.8459724222        0.0934851510      -12.6477497105
 H         7.2964138014       -1.4829488238      -14.6554979728
 H         7.0543941654        0.0763872154      -13.7925910905
 H         8.4274715821        0.8617273231      -15.6739376110
 H         6.8631994146        0.9647550648      -16.4518164263
 H        10.8986103512       -0.0892550987      -17.1511684752
 H        10.8127239092        1.0120747535      -18.6777699091
 H        12.9697896939       -0.1031414952      -18.0440543732
 H        12.5328358682       -0.1571652415      -19.7433410158
 H        11.6818221175       -3.9328955063      -22.4664920997
 H        10.4955458972       -2.8295001887      -21.8578767707
 H        10.4947145454       -5.8626839941      -21.3947245963
 H         9.5906165565       -5.3820759888      -22.8056907511
 H         9.2010294909       -7.7544222940      -20.6037033488
 H         7.7984231795       -8.9167489440      -20.2924547957
 H         9.6714537512       -9.1192599404      -18.9375864870
 H         8.0369943467       -9.0957779246      -18.0552847749
 H         6.5270217739       -6.8886177816      -14.8829640846
 H         6.4509828206       -7.2740791939      -16.6294908242
 H         6.0410699170       -5.7190888066      -15.9769856108
 H         7.8135225181       -8.7505171531      -15.6328309727
 H         9.0768002305       -8.4606539440      -14.4731058528
 H         9.4221926602       -9.5654954685      -15.6137960963
 H        10.8553401696       -5.8241160657      -15.9749150264
 H        11.2630024651       -7.4434567220      -15.5466026021
 H        10.4359292378       -6.4076699858      -14.4756054150
 H         5.4475444206       -5.2533508574      -20.4313855126
 H         5.8553739555       -4.6304661888      -21.8761246544
 H         6.5397720477       -3.8343913583      -20.4381103430
 H         6.6491521547       -7.3711358035      -22.4467591224
 H         8.3169001936       -7.2795500362      -22.3804519117
 H         7.2880842450       -6.0413372265      -23.2377684258
 H        12.3853205692       -1.1026459675      -21.3772566546
 H        13.1780277521       -2.4517017174      -22.1573461947
 H        14.0277860107       -1.4371319825      -21.1269321648
 H        14.5253772935       -4.0394966764      -20.5645647531
 H        13.8780837899       -4.5461163501      -19.1365994429
 H        14.8077423750       -2.9801777972      -18.9843170980
 H         6.1279770331       -1.1263041023      -19.0605866351
 H         7.2319919314       -2.3915101878      -18.9357649415
 H         7.2023903893       -1.4053522549      -20.4043052101
 H         6.7657908432        1.0865062979      -18.3582702455
 H         7.5851300241        1.2250844131      -19.8132226545
 H         8.5400395279        1.6511105388      -18.3719102320
 H         4.1697330073       -1.1684852214      -11.8710111098
 H         5.3212009664        0.1150755909      -12.3552112574
 H         5.6327480692       -1.6733333385      -12.5640243763
 H         3.1591487408       -2.5037886338      -13.2634980263
 H         3.6184712155       -2.5449008374      -15.0090287167
 H         2.3179534608       -1.3286511531      -14.4522323507
 H        -2.1311853491        1.1413071010      -14.6277279683
 H        -0.5820845628        0.4097800813      -14.2804703160
 H        -0.5696256740        2.0155753165      -14.8260787969
 H        -1.1810684018        4.0667008561      -12.5536582018
 H        -2.5585763943        3.1485001026      -11.8247265572
 H        -2.3598387436        3.3018452196      -13.5093057811
 H        -3.5597207583        0.1667520953       -5.0994216724
 H        -5.2245994627        0.2757653054       -5.1487746394
 H        -4.2794736304        1.6033938651       -5.9081849773
 H        -4.9523891578       -2.2580457279       -6.8990180469
 H        -3.1722537793       -1.7255884688       -6.7343950522
 H        -4.0955337946       -1.9812343739       -8.3652141288
 H       -10.4830267415        3.4783601603       -9.0668877229
 H       -11.9429049165        2.7293574713       -9.7897243418
 H       -10.4487342436        2.3852969292      -10.3266721215
 H       -12.3430330299        1.1940532601       -6.5241585443
 H       -12.7688653024        2.4995892945       -7.4352844616
 H       -11.3419857911        2.6297875329       -6.5028738760
 H       -10.9565496079       -4.3701136778       -8.2160689178
 H       -12.0493969501       -5.0795734928       -9.3130647457
 H       -11.4602445682       -6.0751117855       -7.9452387988
 H       -14.1445439932       -6.2179445960       -7.1861005615
 H       -14.5632038526       -5.0962712689       -8.6265215090
 H       -15.0372266336       -4.6468340096       -6.9168211328
 H       -15.4754092645       -0.3007593730       -3.8313089381
 H       -15.7164431549       -2.0385298533       -4.2082810971
 H       -14.3533375533       -1.2542311897       -4.8377397905
 H       -13.4326249677        0.2934022567       -2.7579886049
 H       -12.1709396345       -0.9967151683       -3.0581037645
 H       -12.7522291936       -0.6673539983       -1.5020202270
 H       -19.1250714291       -4.0486547909        3.1240990427
 H       -17.5525888099       -3.9237377529        2.2448308395
 H       -18.9488223172       -4.3730239702        1.5064750019
 H       -20.9328647184       -2.4856438229        2.4610263032
 H       -20.7743614667       -2.7847817102        0.8099128287
 H       -20.7560383727       -1.1493797198        1.2616333407
 H       -17.6440971318        3.3958763083        5.5816517556
 H       -19.2255113667        3.8788049264        4.9496159913
 H       -17.7157875988        4.8937652231        4.8586064959
 H       -18.2142761394        5.2828740552        2.5004808095
 H       -19.6781521762        4.3615456357        2.5605831752
 H       -18.5526779368        3.9344892525        1.3059156084
 Na      -16.8352826268        0.7457016554        0.7844265371
 Na        9.8961540746       -3.7589491472      -17.8670743571
