232

 C       -15.3068947187        3.9586354569        3.7435945500
 C       -16.3213076584        3.2247509932        2.9254497396
 O       -15.8887164704        2.5371541846        2.0398388980
 C       -17.8580323955        3.2910233775        3.3288409176
 C       -18.4636340844        1.7255264570        3.1952209551
 O       -18.7617230364        1.3434350433        2.0818678980
 C       -18.4180948235        0.7807147555        4.3647575394
 C       -18.8572770707       -0.7287524852        3.9823248308
 C       -18.1653918160       -1.2293286003        2.6942047728
 O       -17.0056494216       -0.9862735344        2.4883897879
 C       -18.9421243015       -2.1867345352        1.6626459821
 C       -18.3853492313       -1.8127099050        0.3639868087
 O       -18.7840414255       -0.8478350736       -0.2197368592
 C       -17.0599966571       -2.5287050665       -0.0369919406
 C       -16.7109883473       -2.1249642261       -1.4280864122
 C       -15.5538605730       -1.2384919894       -1.5933517267
 O       -15.4233305244       -0.2546382469       -0.9160050959
 C       -14.4800640098       -1.4883752065       -2.6089760996
 C       -13.9919573465       -3.1034824080       -2.4707977845
 O       -14.5628456278       -3.7609329445       -1.6605905968
 C       -12.9282826765       -3.6153583227       -3.4335910183
 C       -13.4940982449       -4.5123082954       -4.6169726677
 C       -12.4709996996       -4.8547131938       -5.7489850551
 O       -11.3224261168       -5.1881369829       -5.4874565829
 C       -12.9988171275       -4.6237512497       -7.2988877147
 C       -13.1558509827       -3.0821474249       -7.4714279109
 O       -14.0977808189       -2.5422633405       -6.8258114114
 C       -12.3182459906       -2.1617466733       -8.4544288639
 C       -12.4129991227       -0.6962939174       -8.1559800122
 C       -11.4304732685        0.1591191944       -8.8786009056
 O       -10.8663365285       -0.1576116018       -9.8902895186
 C       -10.9243391283        1.4687853718       -8.1940948589
 C        -9.4995345496        1.1097903056       -7.5630027945
 O        -9.4247046194        0.8572818545       -6.3542028978
 C        -8.1293098177        1.2759245335       -8.3563943389
 C        -6.8760481696        1.2454280657       -7.5074515881
 C        -6.0791246234        0.0462684566       -7.7851651758
 O        -6.5242816832       -0.8436732795       -8.4811387592
 C        -4.4798940830       -0.1754403589       -7.2604394357
 C        -3.4977274744        0.6669664788       -8.2338574616
 O        -3.4577934194        1.8374468822       -8.0899732708
 C        -2.9244466900       -0.0092634949       -9.5979820472
 C        -2.2558094615        1.0696526770      -10.4276846940
 C        -1.4563758653        0.6941612290      -11.7197097961
 O        -1.0140038797       -0.4346961695      -11.9704931330
 C        -1.0951349611        1.8002212498      -12.8163190506
 C         0.3421371940        2.2397848484      -12.2650760009
 O         0.3922795107        2.7096583521      -11.1971520796
 C         1.6715882713        2.0111770624      -13.0347938599
 C         2.1006526755        0.5753543314      -13.4496946971
 C         3.5338444890        0.6859486419      -13.9916495664
 O         4.0664182492        1.6777129054      -14.3067254826
 C         4.3333169413       -0.6878304791      -13.9191793633
 C         5.3957275619       -0.6713687649      -15.1579452376
 O         5.0651145709       -0.8898214534      -16.2947547405
 C         6.9302935427       -0.4297095745      -14.7581771543
 C         7.6095344346        0.1875771985      -16.0090457057
 C         8.1502049478       -0.7938510684      -17.0159469585
 O         8.4911601577       -1.9295432568      -16.6488351511
 C         8.2892701497       -0.4305404783      -18.4838930636
 C         9.8077894743       -0.8258236368      -18.9142601920
 O        10.0057441473       -1.7720026921      -19.6377196822
 C        10.8951074150        0.0187148203      -18.2275424495
 C        12.2845266358       -0.5412273634      -18.7227582939
 C        12.2258314854       -2.0445638021      -18.7793291718
 O        12.0134535662       -2.6903551109      -17.7979255403
 C        12.7686616708       -2.8448203555      -20.1055159316
 C        11.7476168090       -3.9357783057      -20.3848655328
 O        11.5939985472       -4.8344803926      -19.5849921161
 C        10.9422278038       -3.8212577499      -21.6139000776
 C        10.0364493320       -5.0855448019      -21.7635604804
 C         8.7276318757       -4.9509894391      -20.8279170492
 O         8.6977034442       -4.0594838026      -19.9786988988
 C         7.4579318363       -5.7857600557      -21.0706829204
 C         7.3246740364       -6.7889922805      -19.7810819511
 O         6.5478445505       -6.6980740464      -18.8743518084
 C         8.3305242445       -8.0001472763      -19.8342502471
 C         8.8396777802       -8.4406456403      -18.4441777545
 C         9.5022072086       -7.1826713833      -17.6938659222
 O         9.7833542072       -6.2003776960      -18.3568353063
 C         9.2289346167       -7.1929042161      -16.1697849221
 C         8.0429740173       -6.1670634564      -16.0528606487
 O         8.2157595122       -5.0063894215      -16.2749018412
 C         6.5906635014       -6.6005246547      -15.9137511782
 C         8.9021430180       -8.5417113561      -15.6646428237
 C        10.5188478778       -6.5890075922      -15.5250894380
 C         6.2721349358       -4.7500280440      -21.0124346328
 C         7.5785155925       -6.6915690727      -22.3045097787
 C        13.0616493659       -1.8666056685      -21.1983598548
 C        14.0078204929       -3.7097919693      -19.5882113776
 C         7.2719060876       -1.3535227243      -19.2821327809
 C         7.8924358584        1.0628973177      -18.9434979681
 C         4.9528022868       -0.8851806177      -12.4712413020
 C         3.3820109534       -1.9263564744      -14.2175103854
 C        -1.1539089940        1.2540469983      -14.2403725953
 C        -1.9694614407        3.0705636555      -12.7458368743
 C        -4.3671882877        0.3593964597       -5.8387645914
 C        -4.2095436274       -1.7375950676       -7.2550498363
 C       -10.7828019872        2.3758816704       -9.3510921710
 C       -11.7245850730        2.0761913676       -7.0553086271
 C       -11.9201067188       -4.9983023059       -8.2697745256
 C       -14.3715810474       -5.3397372988       -7.4442726798
 C       -15.1047993400       -1.4421322123       -4.0408825111
 C       -13.2190411651       -0.6636301951       -2.4106907405
 C       -18.6285957542       -3.6634240501        2.1194009956
 C       -20.5012369117       -2.0116203928        1.5457399641
 C       -18.1614581431        3.9104205269        4.6800127209
 C       -18.5303446121        4.2041780975        2.2819143476
 H       -15.1982786892        3.3558276883        4.6974878447
 H       -15.4976540891        4.9526899583        4.1067874282
 H       -14.2900863623        3.8622004682        3.3365985434
 H       -18.8928868904        1.1962516093        5.2299533017
 H       -17.4192240417        0.9050623316        4.6268451683
 H       -19.8931723497       -0.7790560305        3.8699855235
 H       -18.5365743785       -1.4149778790        4.7870078549
 H       -17.3260154549       -3.5746650570       -0.0853406304
 H       -16.2947800485       -2.3990120635        0.6978680175
 H       -17.4875779433       -1.5234251423       -1.9342464509
 H       -16.6625100253       -3.0199994598       -2.0774942240
 H       -12.0153014512       -4.1439071904       -3.0011345001
 H       -12.5300573781       -2.7053100227       -3.9576542242
 H       -14.4248538463       -4.1209604716       -5.0202365923
 H       -13.6319175693       -5.4103604935       -4.1169108753
 H       -12.6444451036       -2.3067850642       -9.4832241393
 H       -11.2939327183       -2.4793842138       -8.2246170067
 H       -12.5028805682       -0.5367703220       -7.0979923396
 H       -13.3880836130       -0.4110857108       -8.5481896991
 H        -8.1210200207        2.2504216323       -8.9211639088
 H        -8.1901574615        0.4772087486       -9.1267533592
 H        -7.0771870107        1.1920559446       -6.3712511100
 H        -6.4944740228        2.2535620949       -7.5954739232
 H        -3.8489165829       -0.3625973921      -10.1337380688
 H        -2.2947294276       -0.8966876360       -9.3638923574
 H        -1.4336636730        1.4550136720       -9.8352658911
 H        -2.8612302923        2.0039104815      -10.6183994849
 H         2.3518779504        2.2935161141      -12.2933999662
 H         1.7242248591        2.7848072758      -13.8115411237
 H         1.3967954105        0.1711961438      -14.1462618612
 H         2.1568765859        0.0454873704      -12.5093776863
 H         7.3367725618       -1.3509430386      -14.2879225022
 H         6.8211774516        0.3831297305      -13.9897586274
 H         8.3806326241        0.8367358254      -15.5286784150
 H         6.8418824849        0.8769225021      -16.4101762847
 H        10.7244935295       -0.3451741438      -17.1781200482
 H        10.8763854585        1.1270615836      -18.4212803249
 H        13.1568485820       -0.2695442316      -18.0886217958
 H        12.5053282745       -0.1326394492      -19.7178389595
 H        11.5830323059       -3.8260607965      -22.5251630243
 H        10.3863457200       -2.8885856299      -21.6523953256
 H        10.6186246493       -6.0637463110      -21.6168016523
 H         9.5417704799       -5.1403112947      -22.7642993776
 H         9.1415010332       -7.7773965144      -20.5574645163
 H         7.8409143175       -8.8927597636      -20.1235280958
 H         9.4590365345       -9.3213608770      -18.6689288992
 H         7.8948721823       -8.6987408928      -17.8965095897
 H         6.3327643666       -7.3568885958      -15.1981557360
 H         6.2710225731       -6.8243919252      -16.8340642743
 H         6.1605148339       -5.6783598979      -15.5630053275
 H         7.8660097820       -8.6474633563      -15.8848340968
 H         9.1440660058       -8.5165246963      -14.6159716459
 H         9.5436550996       -9.4083414506      -15.9266421880
 H        10.5322546550       -5.5536192507      -15.7882515444
 H        11.3832905099       -7.0166658810      -15.9090376267
 H        10.6312217782       -6.5418560349      -14.4404153625
 H         5.3298049085       -5.2159086281      -20.7486482971
 H         5.9719048624       -4.3606383568      -22.0393197040
 H         6.4397664666       -3.9192798445      -20.3472027962
 H         6.9187169371       -7.5627653249      -22.2776683109
 H         8.5218624969       -7.1483795676      -22.4287648415
 H         7.2766614879       -6.1949513448      -23.1986844631
 H        12.2679579136       -1.1983777826      -21.5003529260
 H        13.4416745952       -2.4004946308      -22.1141683010
 H        13.9632049647       -1.2668727158      -20.8950996947
 H        14.1169146538       -4.7199275000      -20.2105302641
 H        13.8491197419       -4.2173547699      -18.6481989711
 H        14.9049746162       -3.0797919828      -19.5256363929
 H         6.2565998375       -1.0977939262      -19.0474942216
 H         7.2740008214       -2.4403254644      -19.0245661436
 H         7.3588841067       -1.1625497122      -20.4449326299
 H         6.9354158558        0.9608101498      -19.4347305946
 H         8.5118518933        1.5310317396      -19.7110228057
 H         7.8855121998        1.7088151853      -18.1086221831
 H         4.1125047317       -0.9873123159      -11.8073358388
 H         5.4918889156       -0.0529936175      -12.2292787386
 H         5.4460662884       -1.8684100951      -12.4256398590
 H         3.2881886411       -2.5490453501      -13.2768280804
 H         3.8099419392       -2.5004431290      -15.0098808667
 H         2.4178506462       -1.4951347124      -14.4600029170
 H        -2.1725570422        0.9945969353      -14.3686843961
 H        -0.4898685549        0.4253429562      -14.3939385178
 H        -0.8734910421        2.0786763463      -14.8391884854
 H        -1.3402676653        3.8949573472      -12.7567659213
 H        -2.5755538548        3.0158337076      -11.8730835540
 H        -2.6520825069        3.1716427108      -13.6317141999
 H        -3.9252478344       -0.2942567175       -5.0586852072
 H        -5.3450074047        0.4579974834       -5.3547255844
 H        -3.8156875332        1.3236008198       -5.8497338181
 H        -5.1205665697       -2.2195946150       -6.8025454934
 H        -3.3082179011       -1.8937508727       -6.5767814656
 H        -4.1883667822       -2.2782854382       -8.2629271626
 H       -10.5134059276        3.3631178786       -9.1663447854
 H       -11.6275221763        2.3877528508       -9.9761728713
 H       -10.0360120822        2.0892975805      -10.1312382811
 H       -11.7937071632        1.4052546460       -6.1688587758
 H       -12.7617447578        2.1531022395       -7.2825726776
 H       -11.3028475951        3.0201531810       -6.7728196237
 H       -11.0751903479       -4.2797463723       -8.3398226112
 H       -12.3348530515       -5.0288531720       -9.2547654401
 H       -11.5589411715       -6.0099616731       -8.0140199344
 H       -14.2428987655       -6.3500987906       -7.0063070977
 H       -14.5992182780       -5.3241022598       -8.5364829654
 H       -15.1739594009       -4.7280337209       -6.9432851937
 H       -15.4296147260       -0.4043740372       -4.3931834312
 H       -15.9036409688       -2.1527445595       -4.0574286899
 H       -14.3015357614       -1.8994367720       -4.6999538127
 H       -13.3782525640        0.3548638786       -2.6337442670
 H       -12.2925776683       -1.0366860593       -2.8981370280
 H       -12.9882972205       -0.7266593830       -1.3271943817
 H       -19.3700571424       -4.0425400602        2.7879425067
 H       -17.6861896652       -3.9408100911        2.4198210987
 H       -18.7848135928       -4.3742705221        1.2886603923
 H       -20.9273183316       -2.4065165938        2.4146651043
 H       -20.8688510986       -2.5791178386        0.8136528108
 H       -20.8442683213       -1.0417196157        1.2981994427
 H       -17.6295182737        3.4761153919        5.5561684091
 H       -19.1736093502        3.8234399174        4.8905794210
 H       -17.7019978188        4.9491571210        4.7811126291
 H       -18.3399492324        5.2003261136        2.4915779924
 H       -19.6003164772        4.0537085777        2.2774148714
 H       -18.1826096717        3.9289619649        1.2766899467
 Na      -16.7143625936        0.8105753811        0.8106572732
 Na        9.8568977650       -3.8068633347      -17.8922947682
