232

 C       -15.2308696362        3.9613139146        3.6553600944
 C       -16.2094766460        3.1582339010        2.7991380870
 O       -15.8783454935        2.3398425057        1.9417375095
 C       -17.7550701172        3.3400711767        3.2097785660
 C       -18.3724354309        1.9125142620        3.1035710359
 O       -18.6136090417        1.4405544605        1.9995692393
 C       -18.4509725411        1.0558743282        4.3573966505
 C       -18.8933567897       -0.3837198851        4.1336527037
 C       -18.3578968562       -1.0037302168        2.7933183995
 O       -17.1455961775       -1.0693943224        2.5713116987
 C       -19.2356000848       -1.9714943396        1.8796278275
 C       -18.5115240283       -1.7360083392        0.3916244553
 O       -18.8222541627       -0.7012494416       -0.2401163757
 C       -17.6741452420       -2.7762853484       -0.3062258008
 C       -16.8472932528       -2.4341064732       -1.5621453209
 C       -15.6909162313       -1.3984348157       -1.5089991680
 O       -15.5004567084       -0.6125678236       -0.5769541942
 C       -14.7358045542       -1.4409959732       -2.7430469803
 C       -14.0252748087       -2.8757221558       -2.6369920030
 O       -14.1617849160       -3.5864085209       -1.6454496404
 C       -13.0122168497       -3.1713240092       -3.7758962889
 C       -13.3864794722       -4.4703762273       -4.4990959827
 C       -12.3969209129       -4.8145402552       -5.5879769619
 O       -11.2992560549       -5.2293188431       -5.4135451537
 C       -12.9426154768       -4.5307562634       -7.1305324245
 C       -12.9538222306       -2.9498645629       -7.2494097788
 O       -13.7988397793       -2.2976650774       -6.7146151617
 C       -11.5918213616       -2.3581980960       -7.7652150185
 C       -11.4061294006       -0.8775032074       -7.2934745530
 C       -10.9154540089        0.0744570236       -8.4679448309
 O       -11.0650828415       -0.3832539866       -9.6077508429
 C       -10.4949595912        1.5560675041       -8.1096536641
 C        -9.1447208677        1.3917722657       -7.4053905001
 O        -9.1209960861        1.0119707716       -6.2773554922
 C        -7.8176518611        1.5156622250       -8.2125304354
 C        -6.6110477203        1.0196225397       -7.4722318097
 C        -5.8917831352       -0.2348823089       -8.0785772856
 O        -6.4347803260       -0.7661547686       -9.0461403308
 C        -4.5109987490       -0.5621602905       -7.5839818627
 C        -3.5427607955        0.5859211983       -8.2992949759
 O        -3.6707975550        1.8007918691       -8.0852933038
 C        -2.7220578803        0.0148734379       -9.4891457586
 C        -1.9348832784        1.0357274164      -10.2160012021
 C        -1.4019415750        0.5209143424      -11.5691308074
 O        -1.3478578291       -0.6442001459      -11.9058531378
 C        -1.1183705564        1.5588805681      -12.7252102183
 C         0.2610442546        2.2015227152      -12.4607250571
 O         0.2696233669        3.1619441380      -11.6306343651
 C         1.5870624320        2.0061466142      -13.2539054680
 C         2.3665886510        0.6759152003      -13.0402193369
 C         3.2122208130        0.4052383715      -14.2900985605
 O         3.1419162929        1.1292761256      -15.2779173757
 C         4.2281980807       -0.7555164494      -14.1572423496
 C         5.2918592419       -0.5422173315      -15.1727988580
 O         4.9857419194       -0.6311095137      -16.3487380143
 C         6.8257585405       -0.1652376788      -14.7909668347
 C         7.4568738172        0.4728283982      -16.0351185155
 C         8.2447409475       -0.5301551374      -16.8845732800
 O         8.6819607719       -1.6191885767      -16.5129751544
 C         8.5294916187       -0.2285327022      -18.3273732554
 C         9.9021497308       -0.6897826131      -18.9019855887
 O         9.8350828497       -1.4209009622      -19.8600500254
 C        11.1205929150       -0.1146965520      -18.2722646845
 C        12.4362126456       -0.7514541422      -18.6907165709
 C        12.2829236772       -2.2786587142      -18.8820437331
 O        11.6830003759       -2.8694328457      -18.0243687015
 C        12.9307185866       -3.0945929843      -20.0370797590
 C        11.9173514444       -4.2900816627      -20.3558423218
 O        11.9622770531       -5.3163656504      -19.7093227323
 C        10.8734822111       -4.0237116916      -21.4646746155
 C         9.8295102607       -5.1418229326      -21.7908357001
 C         8.5709973064       -5.0901711850      -20.8195988005
 O         8.4193673350       -4.2311670883      -19.9834953721
 C         7.3899868632       -6.0970331643      -21.1930038034
 C         7.4017500232       -7.0735930918      -19.9880164218
 O         6.5260907045       -6.9311541045      -19.1502838591
 C         8.5127970876       -8.1241907219      -19.7075284476
 C         8.7174546842       -8.2564501663      -18.1623714453
 C         9.1539805602       -6.9508463896      -17.5296556968
 O         9.6510078912       -6.0435252052      -18.1718566800
 C         9.1329022209       -6.7117762897      -15.9765682989
 C         7.7668712836       -5.9344242190      -15.7837071808
 O         7.6447587381       -4.7862578646      -16.2329514343
 C         6.7228986518       -6.7703711507      -15.0369712257
 C         9.3179636927       -8.0534912738      -15.0320342499
 C        10.3625620256       -5.8650609782      -15.5542274047
 C         6.0869592958       -5.2657916997      -21.4017554165
 C         7.6199173546       -6.7930461932      -22.6340499880
 C        13.2274528251       -2.2359071782      -21.2995204755
 C        14.1870008868       -3.6764551477      -19.5720088028
 C         7.4678794604       -1.0569354407      -19.0823904039
 C         8.4127021351        1.2575322747      -18.8016176482
 C         4.8740406315       -0.8090428850      -12.6644222292
 C         3.4171813914       -2.0701332773      -14.5730764124
 C        -1.2599309235        0.8257392679      -14.1338391480
 C        -2.2631268436        2.6991450352      -12.8230361245
 C        -4.2701557197       -0.4237376930       -6.0129047968
 C        -4.1194725590       -1.9621093508       -8.0826158607
 C       -10.6547338945        2.2740292957       -9.4226661963
 C       -11.5253796572        2.1655049915       -6.9894140847
 C       -12.0600373174       -5.2057411011       -8.2290193642
 C       -14.3384282996       -5.0795314916       -7.4932483719
 C       -15.4536402090       -1.3067852290       -4.0889348005
 C       -13.5707514325       -0.4024720618       -2.4906177761
 C       -19.0921711954       -3.3630123323        2.4464658553
 C       -20.7220103551       -1.5675087571        1.7087566553
 C       -17.9287644980        4.0264061400        4.5548114521
 C       -18.3014115376        4.1367275322        2.0128239694
 H       -15.2001977228        3.7225882269        4.7269033364
 H       -15.5548055827        5.0138794322        3.7263533625
 H       -14.2176635595        3.8732080264        3.2243856119
 H       -19.0674949483        1.5447979691        5.0399621174
 H       -17.4600155839        1.0841542646        4.7690835860
 H       -19.9854348009       -0.4150405426        4.1029305882
 H       -18.4297472110       -1.0075811999        4.8272666704
 H       -18.3913987032       -3.5794646936       -0.4809798703
 H       -17.0167327180       -3.0090005761        0.5176854678
 H       -17.5046713229       -1.9974936238       -2.3400659583
 H       -16.4602961299       -3.4039377602       -2.0106002974
 H       -11.9674842732       -3.3324658641       -3.3356761059
 H       -12.9614257423       -2.3809752817       -4.5678523830
 H       -14.3381665061       -4.3288094104       -4.8750741658
 H       -13.3311913461       -5.2813212381       -3.7657805319
 H       -11.7540609033       -2.2284102967       -8.8678293246
 H       -10.7229858652       -2.9576967287       -7.5395042272
 H       -10.5898135665       -0.9795485420       -6.5436362172
 H       -12.2651813914       -0.4290741560       -6.8766239719
 H        -7.8367400728        2.5949380729       -8.4681405288
 H        -7.8571832969        0.8917652913       -9.1508964327
 H        -6.9073728564        1.0147625887       -6.4286439174
 H        -5.7061678753        1.7503361383       -7.5244131206
 H        -3.4635481010       -0.5633559591      -10.1268698262
 H        -2.0527625852       -0.7878037028       -9.1412449747
 H        -1.0801390424        1.3620154043       -9.6147860168
 H        -2.5073185749        1.9462195037      -10.4615396324
 H         2.2463691145        2.8212796359      -13.0318566743
 H         1.3791965322        2.1054830934      -14.3009956787
 H         1.7882316629       -0.2288951820      -12.8379602077
 H         2.9864162124        0.7820884202      -12.1385381253
 H         7.3813840003       -1.1281609902      -14.6087795374
 H         6.7860509180        0.4733171157      -13.8787048000
 H         8.2452253860        1.2350753973      -15.7147105394
 H         6.7048368240        1.0422994729      -16.5963702895
 H        11.0932408827       -0.1264930413      -17.1287799341
 H        11.0678482290        0.8499027737      -18.7954434535
 H        13.1969958298       -0.4244008429      -17.9554504607
 H        12.7009105315       -0.3573266256      -19.6757580926
 H        11.2771609459       -3.7021359818      -22.4144175085
 H        10.3556579082       -3.1418769471      -20.9735618532
 H        10.1434716247       -6.1982263916      -21.6940733791
 H         9.2994419059       -5.0222244067      -22.7948101875
 H         9.4335048261       -7.8266523650      -20.1633987619
 H         8.3083381502       -9.0428946303      -20.2488838693
 H         9.5461222278       -9.0027978256      -17.9660167416
 H         7.8284992256       -8.6226401060      -17.5933438544
 H         6.6109709479       -7.6951165530      -15.5286523302
 H         5.7212069338       -6.3196505945      -15.0943190319
 H         7.0694396150       -6.8784776099      -14.0846958716
 H         8.6801212442       -8.9286697083      -15.3811433487
 H         9.1024714117       -7.9034829952      -13.9691181844
 H        10.2482737439       -8.4921664232      -15.1726567342
 H        10.2134462374       -4.8144424630      -15.5147949321
 H        11.3085727094       -6.0301944602      -16.0461330824
 H        10.4643297356       -5.9902572045      -14.5350687201
 H         5.2283763994       -5.7137016300      -21.9584144501
 H         6.3544690263       -4.2818745942      -21.7394117400
 H         5.6200191452       -5.1150697929      -20.4228999737
 H         6.9456340754       -7.5715833587      -22.7775847780
 H         8.6281013478       -7.0513076869      -22.8649954756
 H         7.5116554855       -6.0309348632      -23.4063044274
 H        12.2736664359       -1.7083897604      -21.5665547894
 H        13.5021976923       -2.8308551348      -22.1263227688
 H        13.9837434027       -1.4809873241      -21.0433056245
 H        14.5550833239       -4.4955626261      -20.1603281944
 H        14.0274055689       -4.2724340482      -18.6046600557
 H        14.9790286766       -2.8545372137      -19.5447817560
 H         6.3531467890       -0.9821819403      -18.7443744076
 H         7.7644077392       -2.1454023595      -18.9621275974
 H         7.5220353911       -0.9125464138      -20.1422448733
 H         9.1299331874        1.4466105099      -19.5415769352
 H         8.5235818997        1.8807760395      -17.9316860045
 H         7.4673019377        1.4008548916      -19.3300434397
 H         4.1959786223       -1.2549245744      -11.9567462236
 H         5.1282761169        0.2062816135      -12.2960552584
 H         5.7441005428       -1.3794238686      -12.7450472471
 H         2.4127414386       -1.8060676047      -14.7635194103
 H         3.7299022705       -2.8337500499      -13.8469808514
 H         3.8757366718       -2.3152875817      -15.5220219410
 H        -2.2631654655        0.5385633608      -14.2689207237
 H        -0.6398289756       -0.0647693260      -14.1042043389
 H        -0.9964781717        1.4955650338      -14.9339784540
 H        -1.9639335660        3.4010199412      -13.5828804022
 H        -2.1633306163        3.3101577395      -11.9364332048
 H        -3.2296250438        2.2865240065      -12.8240580199
 H        -3.2263651734       -0.1611990540       -5.8348192285
 H        -4.5883003461       -1.3354522278       -5.3976989461
 H        -4.8919306861        0.4122898370       -5.5664927567
 H        -4.7309664463       -2.7544386166       -7.5138481197
 H        -3.0454098370       -2.2413200628       -7.8434177500
 H        -4.3667630410       -1.7804682660       -9.1387731566
 H       -10.5963860065        3.3787389643       -9.4410898385
 H       -11.6074749058        2.1436581071       -9.9072879537
 H        -9.8643076401        2.0649402135      -10.0518839194
 H       -11.5590665923        1.5713534690       -6.1197701806
 H       -12.4835384879        2.4413762915       -7.3988681328
 H       -11.0320401189        3.0524691965       -6.5712244454
 H       -11.0168557752       -4.9957933803       -8.0550996682
 H       -12.2480800210       -4.8484565189       -9.2699404426
 H       -12.0787014354       -6.2637956105       -8.1983374473
 H       -14.4793502006       -6.1240204172       -7.0707214641
 H       -14.4930228341       -5.0032707477       -8.5802928165
 H       -15.1195421199       -4.4044040237       -7.0287219815
 H       -16.2503615360       -0.5648123462       -4.1331899318
 H       -16.0530388139       -2.2953292865       -4.2326185954
 H       -14.6964140878       -1.1611742896       -4.8634776303
 H       -14.0337509895        0.5668453411       -2.2501494861
 H       -12.9776210483       -0.2042600310       -3.3601983628
 H       -12.9238347985       -0.7466323109       -1.6904252944
 H       -19.3103602968       -3.3683090655        3.4742957594
 H       -18.0527802376       -3.7342507949        2.4576345718
 H       -19.6556617349       -4.1708199749        2.0473663914
 H       -21.1291210816       -1.6128084798        2.6378995704
 H       -21.3169179705       -2.0849012810        0.9721736903
 H       -20.7770708090       -0.5689129251        1.5594966341
 H       -17.4753468581        3.4304851720        5.3449141479
 H       -19.0607500565        4.0762307010        4.8972674865
 H       -17.6711094599        5.0458334693        4.5420069034
 H       -17.7153316779        5.0109893654        1.7335502141
 H       -19.3300144710        4.2759102904        2.2016512306
 H       -18.2501764392        3.4841824133        1.1900716148
 Na      -16.8443887346        0.5994474793        0.7160690164
 Na        9.3255205307       -3.6427500142      -17.8242109903
