232

 C       -15.0701506584        4.0712904486        3.1178930111
 C       -15.9979846345        2.9828179164        2.7308594394
 O       -15.6764253504        1.9638491602        2.1530203322
 C       -17.5675007258        3.2688591187        2.9929232143
 C       -18.4541100568        2.0067936340        3.0829275102
 O       -19.1959650222        1.6796711953        2.1773605779
 C       -18.4119320060        1.1508683647        4.3487686092
 C       -19.2334163825       -0.1735799736        4.0608712013
 C       -18.4712231119       -0.9327622643        2.9309122835
 O       -17.2587549823       -0.8349746229        2.9231781976
 C       -19.3704898063       -1.6365824494        1.8402164716
 C       -18.5972688417       -1.5373953542        0.4567016614
 O       -18.6547703574       -0.6033921353       -0.2691372468
 C       -17.8277463863       -2.8246033547       -0.0794544209
 C       -17.2037432543       -2.4932823504       -1.5346066543
 C       -15.8717710624       -1.5353397518       -1.4481976700
 O       -15.6422133537       -0.8285637259       -0.4858392066
 C       -14.9314208553       -1.5185755992       -2.7837088900
 C       -14.0709605480       -2.7845650142       -2.7131676970
 O       -14.0695861335       -3.5483809999       -1.7605237654
 C       -13.1703084873       -2.9850254632       -3.9082441572
 C       -13.3461027741       -4.4169495237       -4.3654204707
 C       -12.4289181129       -4.7470001894       -5.5692897045
 O       -11.4475254368       -5.4534780746       -5.4015180278
 C       -12.7898271849       -4.3003234213       -7.0489327495
 C       -12.2899262775       -2.8295554591       -7.1242288668
 O       -13.0983832748       -1.9229965390       -7.0729817796
 C       -10.7031805566       -2.5249362881       -6.9741375240
 C       -10.4099173343       -0.9697341926       -6.7979401056
 C       -10.6738671923       -0.1866853345       -8.0679002500
 O       -11.1177239595       -0.5896662398       -9.0870756955
 C       -10.4443593358        1.4892664452       -7.8426897976
 C        -8.9430668021        1.5421168721       -7.2131685154
 O        -8.7163053533        1.5142177324       -5.9924443593
 C        -7.7946084143        1.4371017886       -8.2262819441
 C        -6.4696186821        0.8968922117       -7.5856750514
 C        -5.8069204185       -0.2845592658       -8.4522387049
 O        -6.4017114354       -0.8351276379       -9.3431115268
 C        -4.3791880453       -0.8255536165       -7.9137094174
 C        -3.3329792308        0.2338355966       -8.3589529818
 O        -3.3012750185        1.3134352887       -7.8586051799
 C        -2.3625070972       -0.1231360156       -9.5259511710
 C        -2.0852562061        1.0436622514      -10.5033971510
 C        -1.3643173248        0.3620710625      -11.7070182349
 O        -1.0365545531       -0.7959671672      -11.7784672677
 C        -1.1773891207        1.3709396121      -12.9463418897
 C         0.2325431141        2.1902779572      -12.6296021534
 O         0.3816175391        2.7654070645      -11.6184923186
 C         1.3253354124        2.1566219263      -13.6692465576
 C         2.4543239828        1.1505990114      -13.3972137287
 C         2.9994747025        0.4801842027      -14.6240918954
 O         2.6026986232        0.5883753911      -15.7618544571
 C         4.1183706124       -0.8047799205      -14.3354326288
 C         5.3220396722       -0.6089545180      -15.3569237383
 O         5.2799600905       -0.8902240651      -16.5160290273
 C         6.6059245834       -0.1111913498      -14.8181748914
 C         7.5339441869        0.6797123178      -15.8263580439
 C         8.0207027446       -0.3431111421      -16.9256590547
 O         8.2283354612       -1.4918861243      -16.6126773767
 C         8.4442154101        0.1817307063      -18.4174236309
 C         9.6978632558       -0.5885221026      -18.7946238295
 O         9.8686619859       -1.1441081793      -19.9407509848
 C        10.9110168860       -0.5763487756      -17.8445469646
 C        12.1536596590       -1.1342854650      -18.5275516287
 C        11.9763905432       -2.6449540206      -18.8616083372
 O        11.1217915889       -3.3770503532      -18.2655637010
 C        12.8828471988       -3.3536372091      -19.8306240649
 C        12.1232528145       -4.6052889505      -20.5455442312
 O        12.5561710807       -5.7029447503      -20.3796304379
 C        10.7304565534       -4.1912438161      -21.2852104978
 C         9.8423836298       -5.3532926462      -21.7096588127
 C         8.4341221217       -5.2020745824      -20.9358152509
 O         7.9959224423       -4.2828966330      -20.2867488535
 C         7.3493675722       -6.3915790789      -21.1900970459
 C         7.2985276772       -7.3583482446      -19.8042920541
 O         6.3382679950       -7.3637685075      -19.0996818923
 C         8.6595844183       -8.0119945866      -19.4166479269
 C         8.9983334908       -7.9590691779      -17.9355574848
 C         9.3126145592       -6.5837932218      -17.4037651844
 O         9.6260820778       -5.7593986640      -18.2468282385
 C         9.2005369093       -6.3216675500      -15.7521323833
 C         7.8482857603       -5.4506328838      -15.6107450421
 O         7.6798218624       -4.4740423325      -16.3034829699
 C         6.9369314229       -5.7194946886      -14.4431698945
 C         9.0909148086       -7.6184394550      -14.9834302413
 C        10.4504030769       -5.3426801699      -15.3897349744
 C         5.9243005613       -5.7800655321      -21.4344323283
 C         7.7379086029       -7.2765470122      -22.3641201116
 C        13.4811147935       -2.5725493161      -20.9957557318
 C        14.1137728437       -3.7984591274      -18.9044552966
 C         7.3001192324       -0.2671040948      -19.3271683095
 C         8.6841870200        1.7497111898      -18.3986031088
 C         4.3624787589       -0.7480741563      -12.7923767224
 C         3.4119749589       -2.0869263971      -14.8496451460
 C        -0.9354746040        0.4858109270      -14.1989698032
 C        -2.3414481644        2.4776864951      -13.1164635124
 C        -4.3922675121       -0.8686428274       -6.3826901055
 C        -4.1197907554       -2.2848902249       -8.5286230650
 C       -10.3037103257        2.0413857571       -9.3305107988
 C       -11.5042951623        2.2287264917       -7.0438988001
 C       -12.0713613510       -5.1771714965       -8.0615790543
 C       -14.3083357168       -4.2600013297       -7.1944551655
 C       -15.7358523959       -1.5656651372       -4.0964983367
 C       -13.9525881483       -0.2916443098       -2.7980297327
 C       -19.4358780062       -3.0326240697        2.5079311753
 C       -20.7648745981       -1.0425769811        1.7128506298
 C       -17.6418844954        3.9870195574        4.4081127883
 C       -18.0353294886        4.0957859305        1.7588613589
 H       -15.0793922753        4.3581848722        4.1713639342
 H       -15.5485099216        5.0114372841        2.7059254637
 H       -14.0561135576        4.0357472372        2.6992380464
 H       -18.9356671917        1.6327275835        5.1113456935
 H       -17.4512227072        0.8365153323        4.6320786706
 H       -20.2854922927       -0.0478564736        3.8906612733
 H       -19.0637240221       -0.7589509338        4.9669001414
 H       -18.5957812371       -3.5475462117       -0.2962259171
 H       -17.1587983163       -3.2271737782        0.6832206933
 H       -18.0581653730       -2.0600953944       -2.1456670294
 H       -16.9152817219       -3.4668277067       -1.9272559805
 H       -12.1144831154       -2.8855757346       -3.6244395958
 H       -13.4052530343       -2.2829323260       -4.7730035546
 H       -14.3948676200       -4.6012760242       -4.5392805093
 H       -13.1142670797       -5.0565073803       -3.5464414866
 H       -10.2614118495       -3.0226793328       -7.8457426282
 H       -10.4527156082       -3.1534250224       -6.0958087996
 H        -9.5340928366       -0.6300822596       -6.2930814829
 H       -11.3032928038       -0.6289937987       -6.2651704552
 H        -7.4850704125        2.3536982180       -8.7443110030
 H        -8.1792193610        0.6514633527       -8.9567406430
 H        -6.6166212460        0.3671710131       -6.6391723048
 H        -5.6238243523        1.6206586969       -7.4138773115
 H        -2.6928155055       -1.0479544769      -10.0492403498
 H        -1.3402405816       -0.3240958521       -9.0430815539
 H        -1.3766410952        1.7956067113      -10.0211384400
 H        -2.9286098682        1.5267301910      -10.8899262473
 H         1.7010746321        3.1828346990      -13.5883977038
 H         0.9863423493        2.0298734180      -14.6403818045
 H         2.2018959186        0.3654886831      -12.6963724216
 H         3.2428122743        1.5812216865      -12.8042547958
 H         7.1744104296       -1.0951082261      -14.7772172772
 H         6.5338550305        0.2337586281      -13.7798547298
 H         8.3611216801        0.9987833420      -15.1695638539
 H         7.0351714667        1.6505300665      -16.1495055427
 H        10.5832360721       -1.3263203527      -17.0520516335
 H        11.1047575680        0.3949386887      -17.2780952824
 H        13.0121301662       -1.0644737187      -17.8556444892
 H        12.4219400670       -0.5540434736      -19.4533846569
 H        11.1030606601       -3.7002362185      -22.2079445455
 H        10.1859836866       -3.4162986732      -20.7186302867
 H        10.1875849066       -6.3775845458      -21.3603196718
 H         9.4283531566       -5.3130530888      -22.7486516526
 H         9.4239111776       -7.7001925336      -20.0726107909
 H         8.5781049979       -9.0533269205      -19.7379168079
 H         9.9169988021       -8.5861414051      -17.7093650432
 H         8.2526949048       -8.4734977581      -17.3112030488
 H         6.0788510947       -6.1125876673      -14.9337068161
 H         6.6258547360       -4.8824408775      -13.9178462689
 H         7.3229001206       -6.4706287303      -13.7570673865
 H         8.3428893909       -8.3345891495      -15.1633461237
 H         9.0637567436       -7.5231166424      -13.9035521379
 H        10.1036786906       -8.0911530696      -15.2174189881
 H        10.6790164551       -4.6151108383      -16.1144576974
 H        11.3563981127       -5.7969111089      -15.1271718403
 H        10.2359320005       -4.7912678990      -14.4782765925
 H         5.1680498542       -6.4227654889      -21.0240404708
 H         5.8189574416       -5.8278443676      -22.5211547799
 H         5.6842216976       -4.7050010031      -21.2106090810
 H         7.0256050643       -8.1399916994      -22.3140394763
 H         8.7392665670       -7.6236442802      -22.1932114787
 H         7.5954200927       -6.7711525711      -23.2869936720
 H        12.7301881989       -2.3586106105      -21.7157647713
 H        14.2643612332       -3.2988324647      -21.3425207976
 H        13.9755214184       -1.7205675663      -20.6313610182
 H        15.0584834580       -3.7360511402      -19.6211211047
 H        13.9284525562       -4.7200142874      -18.3578724835
 H        14.4054518796       -3.1632561652      -18.0699455101
 H         6.4170408970        0.2901439374      -19.0796735067
 H         7.1188740404       -1.3506626409      -19.5284526385
 H         7.5242246973        0.1656327950      -20.4087491803
 H         9.1794394278        2.0286806396      -19.3565292672
 H         9.3062130576        1.9624198283      -17.5809828514
 H         7.7045742728        2.0946309994      -18.3488459418
 H         3.5253520865       -1.2018913820      -12.3139910260
 H         4.5499599561        0.2357295385      -12.3824349156
 H         5.2626777971       -1.2912182972      -12.5141954000
 H         3.4405832367       -2.8135435267      -14.0184998041
 H         3.9898060520       -2.4659459869      -15.6579389791
 H         2.4405757211       -1.7693788772      -15.2953832888
 H        -1.9057933699        0.0439386228      -14.4752259750
 H        -0.2773441708       -0.3042552946      -14.0571784629
 H        -0.7407618950        1.1051100707      -15.0445737113
 H        -2.5411523874        2.5650275502      -14.2054694234
 H        -2.1937771888        3.4519017764      -12.7139877011
 H        -3.2545025669        2.0002916845      -12.8112899779
 H        -5.3593948178       -0.7561530102       -5.7839533176
 H        -3.7771800426       -0.0186249525       -6.1084881126
 H        -3.7320455299       -1.7080818065       -6.1381450904
 H        -4.8429813519       -2.9113784633       -7.9549636707
 H        -3.0161542854       -2.3738654171       -8.3965327508
 H        -4.3750934789       -2.3231563463       -9.6527645089
 H        -9.4932715921        2.7092195939       -9.4551557711
 H       -11.1630479693        2.6435304640       -9.6606488929
 H       -10.1930596721        1.2589894053      -10.1351205999
 H       -11.2759259587        2.2310442095       -5.9909690733
 H       -12.4750498087        1.7755316549       -7.2624317591
 H       -11.6216474917        3.1278202461       -7.5371103482
 H       -11.1972099389       -5.6215036246       -7.6464979376
 H       -11.8171284387       -4.8310411020       -9.0169114872
 H       -12.7005143105       -6.0596041870       -8.3062507825
 H       -14.7282886786       -5.2481024572       -7.1423244315
 H       -14.5870795482       -4.0298619818       -8.2651287446
 H       -14.7346402834       -3.6188889363       -6.4257793761
 H       -16.6087534906       -0.8086176627       -4.1644811353
 H       -16.1105330008       -2.5437435903       -4.2421576036
 H       -15.1464059754       -1.3134316010       -5.0266846142
 H       -14.4549185359        0.6933553587       -2.8546844144
 H       -13.3639443018       -0.3893964870       -3.6919772540
 H       -13.2979732423       -0.3345063875       -1.9700695828
 H       -19.6512384764       -3.0183853352        3.6111020652
 H       -18.4857829509       -3.4619011101        2.4577441732
 H       -20.1174178161       -3.7303753918        2.0736165326
 H       -21.4551195128       -1.4229189014        2.4140584815
 H       -21.1042188318       -1.3834554024        0.8231672394
 H       -20.8484655610        0.0179810647        1.7073188733
 H       -16.9176596564        3.4641126386        5.0953626553
 H       -18.5423098010        4.2696783374        4.7983189639
 H       -17.1800420744        5.0153065080        4.1910626988
 H       -17.3966100394        4.9527241770        1.7333737852
 H       -19.0107218584        4.4717127083        1.9930379395
 H       -17.9115178540        3.5328256898        0.8449517649
 Na      -17.1230165734        0.5615189740        0.8977245052
 Na        8.8725063290       -3.4077570807      -18.1663535898
