232

 C       -14.8512280485        4.0723156795        3.0441311732
 C       -15.9690798641        3.0086647391        2.6929976999
 O       -15.7138070693        1.9939702244        2.0523933560
 C       -17.4630901820        3.4023314656        3.1153636979
 C       -18.3247182371        2.0647871141        3.1419553611
 O       -18.8095082925        1.6510070126        2.0998802036
 C       -18.5236882102        1.2606408578        4.3496998115
 C       -19.1349450897       -0.1169034773        4.0729649618
 C       -18.6276041887       -0.8584332625        2.8586450716
 O       -17.4158141433       -0.8706370079        2.6641494682
 C       -19.5081631761       -1.7085942894        1.8923941836
 C       -18.6317611133       -1.6533381929        0.4833405738
 O       -18.7882189464       -0.5844173872       -0.1491838445
 C       -17.8223640501       -2.7833961322       -0.0803762751
 C       -17.0883161761       -2.5673124163       -1.3582630453
 C       -16.0046669144       -1.5120736189       -1.4376655825
 O       -15.7925656526       -0.5842994182       -0.6732336282
 C       -15.1081203653       -1.5402293425       -2.7928015253
 C       -14.1783982909       -2.8472294151       -2.6815844380
 O       -14.2399592884       -3.5405502661       -1.7164037052
 C       -13.2370001058       -3.1150323994       -3.8451513018
 C       -13.3945480970       -4.5942385900       -4.3016100014
 C       -12.4241109037       -4.8473826307       -5.4713120993
 O       -11.3972694617       -5.4986100232       -5.3895482125
 C       -12.6997774308       -4.1730798178       -6.8708308321
 C       -12.1204089788       -2.6037985231       -6.8828898701
 O       -12.8698821053       -1.6918836331       -7.1093208746
 C       -10.5879739189       -2.4761254048       -6.9525990968
 C       -10.2224372514       -1.1167997251       -6.6245575744
 C       -10.5079245373       -0.1962673283       -7.8854142519
 O       -11.0363952709       -0.6922478636       -8.8674796552
 C       -10.2682426925        1.3616466663       -7.9116715024
 C        -8.8092408630        1.5549557708       -7.3424388569
 O        -8.6461159015        1.8887229684       -6.2009486539
 C        -7.5964516827        1.3201948981       -8.2509383248
 C        -6.3494991855        0.8775435567       -7.5413965685
 C        -5.7633089241       -0.3330631374       -8.3684791705
 O        -6.2971951050       -0.7895780331       -9.3401790039
 C        -4.4171777990       -0.9044609139       -7.9235873320
 C        -3.2954261787        0.0951260677       -8.3657551717
 O        -3.1640439634        1.2091656398       -7.8476504596
 C        -2.2850611860       -0.2044446168       -9.4663839248
 C        -2.2591009609        0.7589175787      -10.6972515438
 C        -1.2889639264        0.2999724592      -11.8648658212
 O        -0.7390585532       -0.7740024930      -11.8554376714
 C        -1.0811923453        1.2261112050      -13.1747727115
 C         0.2750086777        2.0130446043      -12.7767082894
 O         0.3831188562        2.6000397779      -11.6930409874
 C         1.3805350969        2.2392446227      -13.8085933686
 C         2.4888814566        1.2486243986      -13.5847556779
 C         2.9674627099        0.3792033988      -14.8253921410
 O         2.5357551017        0.6335188524      -15.9276194192
 C         4.0545234949       -0.8957423326      -14.4494582644
 C         5.2618764008       -0.6051372175      -15.3494910736
 O         5.2605692618       -0.7060447387      -16.5697830059
 C         6.4981537244        0.0370049838      -14.7662384383
 C         7.3317885503        0.6482119416      -15.9155455989
 C         7.8463475222       -0.3700397629      -16.8996147894
 O         7.9760607627       -1.5969688259      -16.7715175262
 C         8.3669051606        0.3072429206      -18.2998865533
 C         9.6595237717       -0.4886194332      -18.7344210814
 O         9.6361834645       -1.0870488516      -19.7588277893
 C        10.8339968736       -0.7186653924      -17.7252127496
 C        12.0998349125       -1.2473561700      -18.4251805499
 C        11.8404118050       -2.6937873835      -18.8700827974
 O        11.0389471163       -3.3754242757      -18.3168900902
 C        12.8547797929       -3.4899271570      -19.7455163394
 C        12.0550197130       -4.6763921127      -20.5467874537
 O        12.5297608478       -5.7672733039      -20.7463015290
 C        10.7742612103       -4.2193592232      -21.1246980404
 C         9.9562049663       -5.4249045610      -21.4750526018
 C         8.4269181886       -5.3618486547      -20.9118759312
 O         8.0223884932       -4.4322085855      -20.2245118821
 C         7.4182373228       -6.4769644567      -21.2048474717
 C         7.5002460564       -7.3377882541      -19.8140395640
 O         6.5783573151       -7.3340054288      -19.0173023234
 C         8.7852388930       -8.0607525578      -19.3709619170
 C         8.8772273411       -7.9810270593      -17.8395221486
 C         9.1529126558       -6.5493332272      -17.2907564980
 O         9.4284132247       -5.7130101461      -18.1012037358
 C         9.1520941276       -6.1029049816      -15.7505838216
 C         7.8718438599       -5.1354574291      -15.6532564552
 O         7.6355079869       -4.1580823405      -16.3513287443
 C         7.0408360909       -5.3500441198      -14.4185671978
 C         9.1914103631       -7.3721084465      -14.8522363532
 C        10.3887063566       -5.2908912398      -15.5870272250
 C         5.9858907242       -6.0411131155      -21.2879009686
 C         7.7732456329       -7.4839677776      -22.3881807417
 C        13.5514364473       -2.5517156808      -20.8613950398
 C        13.9216751658       -4.1334614212      -18.8325341527
 C         7.1739198601        0.1562951090      -19.2544395360
 C         8.8501241146        1.8295409282      -18.2434990952
 C         4.5281224722       -0.9274857322      -12.9938331065
 C         3.2450569673       -2.0619926984      -14.8706078523
 C        -1.0483255435        0.3763128235      -14.4499107545
 C        -2.0730097460        2.3745021164      -13.2482003424
 C        -4.2441692236       -1.1117701735       -6.3439685445
 C        -4.2434264198       -2.3160312673       -8.6115623497
 C       -10.4800510712        1.8855047879       -9.2985512520
 C       -11.2262152233        2.0192712027       -6.8654587935
 C       -12.0827166412       -5.0108928061       -8.0074000018
 C       -14.2480193527       -4.0849818989       -7.2196610041
 C       -16.0507193162       -1.5909228548       -3.9784534428
 C       -14.2456932614       -0.1365220739       -2.7078758556
 C       -19.6307367715       -3.1233530906        2.4486937386
 C       -20.9620898456       -1.0729257788        1.6070864621
 C       -17.6704518552        4.2580088627        4.3332157838
 C       -18.0280834124        4.2257882278        1.8203347296
 H       -14.7973084413        4.2106536932        4.1186457418
 H       -14.8388961460        5.0702474181        2.6603188143
 H       -13.9152593273        3.6508268277        2.7429628052
 H       -19.1862401335        1.8239579459        5.0976812765
 H       -17.4699540690        1.0327263891        4.7329898829
 H       -20.2425731921        0.0399395418        3.8657325250
 H       -19.1224474655       -0.8453923921        4.9286087599
 H       -18.4841292664       -3.6949378875       -0.1357933443
 H       -17.1053819539       -2.9490893314        0.7659238251
 H       -17.8138563301       -2.3500314205       -2.0927336936
 H       -16.5824929762       -3.5194622208       -1.5642567758
 H       -12.2707766773       -2.8605099550       -3.4787690365
 H       -13.4519053260       -2.5312461372       -4.7199838043
 H       -14.4693201356       -4.6475695977       -4.5402827108
 H       -13.3103504303       -5.3577343989       -3.4827039113
 H       -10.3221121610       -2.6182487662       -8.0343770402
 H       -10.0124400342       -3.2768589466       -6.4761809217
 H        -9.1022588567       -1.1340236881       -6.5507307420
 H       -10.5741663727       -0.6763382031       -5.6808744270
 H        -7.4323418605        2.3648870035       -8.5780915100
 H        -7.6657679852        0.6698139054       -9.1058817777
 H        -6.5532570346        0.5267722833       -6.5491696388
 H        -5.4569213638        1.4794624407       -7.5632117228
 H        -2.3913048363       -1.2588456569       -9.7557326337
 H        -1.3730756387       -0.0907132449       -8.9190795141
 H        -1.8235729023        1.6532995474      -10.3422373030
 H        -3.3203358451        0.9557926404      -11.0757710460
 H         1.7265830438        3.2695863508      -13.5887102241
 H         0.9622607609        2.2003648218      -14.8785699754
 H         2.2913916730        0.6792505063      -12.6450592194
 H         3.4215745540        1.7640265640      -13.2105371979
 H         7.1279556741       -0.6628341167      -14.2702465817
 H         6.2980782858        0.8105829436      -14.0233480294
 H         8.1250083797        1.2252100324      -15.4128861350
 H         6.7454764009        1.3713382224      -16.4345496006
 H        10.5651187946       -1.4108198401      -16.9311854065
 H        11.0183149566        0.1342097246      -17.1398474136
 H        12.9179587296       -1.2590417568      -17.6813499841
 H        12.5125538675       -0.6690162622      -19.2118990676
 H        10.8348656959       -3.4795056575      -21.9358341665
 H        10.2969768452       -3.7504383979      -20.2462514579
 H        10.2220163045       -6.3094472445      -20.9627650911
 H         9.9127521770       -5.5176682598      -22.5480549957
 H         9.6970737602       -7.6243238534      -19.8563221001
 H         8.7110223756       -9.0976337478      -19.7406419051
 H         9.6325228072       -8.6226096778      -17.4849064169
 H         8.0126301140       -8.3489076655      -17.3184288450
 H         6.1551194386       -6.1077582260      -14.3465289032
 H         6.6391818945       -4.3201447201      -14.2252092958
 H         7.7174408379       -5.4833778919      -13.5275535573
 H         8.1162235290       -7.7196032870      -14.7360909931
 H         9.4414418637       -7.1810405095      -13.7919156161
 H         9.8796420817       -8.1450292176      -15.0784063412
 H        10.5277398820       -4.4079181316      -16.2421264725
 H        11.2975313587       -5.8951081687      -15.8430036247
 H        10.6229226285       -5.0597360179      -14.5608393096
 H         5.3294889232       -6.9417993276      -21.4394675061
 H         5.7475733630       -5.2767126496      -22.0138878486
 H         5.7569435929       -5.5634382304      -20.3542132976
 H         7.0189624491       -8.2005425098      -22.4122097866
 H         8.7159691601       -8.0226248465      -22.3165538243
 H         7.5582406303       -6.8575208796      -23.2425857623
 H        12.7646418631       -2.3897984432      -21.6540218018
 H        14.4251875200       -3.0778440322      -21.1609835620
 H        13.9162000160       -1.5975030939      -20.3750399519
 H        14.4295695961       -4.8267512012      -19.3593386542
 H        13.4987895038       -4.3316241710      -17.8775888959
 H        14.6603747603       -3.4397521596      -18.5036362313
 H         6.2559908329        0.7105896775      -18.9181964874
 H         6.9845551345       -0.8960192132      -19.3630794194
 H         7.3261331619        0.4924774671      -20.2044130531
 H         9.5056789862        1.7773417637      -19.0754657085
 H         9.4901660607        2.0099554472      -17.3529673246
 H         7.9487386928        2.4686103397      -18.2256357686
 H         3.7144797454       -1.0527263268      -12.2387183939
 H         5.2131717444       -0.1216772439      -12.6510433727
 H         5.0910293084       -1.8619443952      -12.8889689575
 H         3.8484960768       -2.8841792553      -14.6669467203
 H         3.1363457632       -1.9800298867      -15.9605249024
 H         2.2947242710       -2.0572113769      -14.3688228461
 H        -1.7656438658       -0.4280177889      -14.3412837392
 H        -0.0575432276       -0.1636269775      -14.5170999003
 H        -1.2664770254        0.8954925945      -15.4087281579
 H        -2.1477374541        2.7646089791      -14.2581364502
 H        -1.8128561173        3.1585694069      -12.5047166821
 H        -3.0950557781        2.0236043605      -13.1265271699
 H        -4.3513580374       -2.1774677099       -6.1500369141
 H        -5.0333545758       -0.6171582282       -5.7315918723
 H        -3.2300191876       -0.7945887604       -6.0375317552
 H        -5.0656436897       -2.9255237663       -8.4582930855
 H        -3.3157375208       -2.5846394116       -8.3225598180
 H        -4.2283464566       -2.1198017834       -9.6406149685
 H       -10.3040158915        3.0044244451       -9.2462210081
 H       -11.4913690062        1.6425919769       -9.6363418964
 H        -9.8604670043        1.4823151357      -10.0499213961
 H       -10.5791577413        2.1287983895       -6.0027876879
 H       -12.0545598257        1.3692583839       -6.5593484475
 H       -11.5900777649        2.9594682175       -7.3948973707
 H       -10.9901055992       -5.1780562809       -7.8931811118
 H       -12.1484725363       -4.5302551374       -9.0327138804
 H       -12.5104235665       -5.9772687493       -8.1868895565
 H       -14.7312163819       -5.0820411701       -7.1310800562
 H       -14.4237053324       -3.8979883425       -8.2485561886
 H       -14.7627337639       -3.3502740343       -6.5768552119
 H       -16.7809325215       -0.8180389068       -3.9270127551
 H       -16.5199791702       -2.6300746311       -4.1202098582
 H       -15.5601787497       -1.3917873265       -4.9156975921
 H       -14.9977224721        0.6505039100       -2.6067859041
 H       -13.7574003467        0.0474344657       -3.6744970244
 H       -13.4960713319       -0.0259534857       -1.8920869373
 H       -20.3172863384       -3.1160654305        3.2768071406
 H       -18.6396074378       -3.5664919303        2.7842784292
 H       -20.0646148870       -3.8113085317        1.7175168897
 H       -21.5078874811       -0.7542131257        2.5271441540
 H       -21.7618865349       -1.6570480373        1.0664981652
 H       -20.7268133829       -0.1824326060        0.9822269607
 H       -17.2284711222        3.8596850798        5.2221501004
 H       -18.8126166214        4.2795650078        4.4664959446
 H       -17.3063868127        5.2345745856        4.2437743513
 H       -17.4372348848        5.1680615844        1.8103826060
 H       -19.0234106804        4.5765377463        2.0030076931
 H       -17.8781562238        3.6319893667        0.9603856405
 Na      -16.8932595377        0.5191076407        0.9070355878
 Na        8.6513889456       -3.3635182820      -18.2639968544
