232

 C       -14.5959727825        3.9861825279        3.2444251292
 C       -15.8247107041        3.2415733234        2.8544542129
 O       -15.7349972055        2.1383791021        2.2786402693
 C       -17.2775924822        3.7146957133        3.2295509568
 C       -18.2984473256        2.5336902906        3.0287885542
 O       -18.5174407170        2.1523315919        1.8668392897
 C       -18.8350914383        1.7235390221        4.2141179000
 C       -19.6936690115        0.5566943348        3.7465593192
 C       -18.9223632903       -0.5127927872        2.8787350400
 O       -17.7137787671       -0.4913550458        2.7408595575
 C       -19.8008862817       -1.4139274591        1.9685331040
 C       -19.0293462417       -1.3969684143        0.6000312598
 O       -19.4297263478       -0.5721716904       -0.2111270054
 C       -17.9222711521       -2.4676196335        0.4903001553
 C       -17.4568005095       -2.6977027199       -0.9584940073
 C       -16.5027166098       -1.6088012405       -1.4639240514
 O       -16.0963947938       -0.6268375994       -0.8031884858
 C       -15.8758545195       -1.8143424421       -2.8441432850
 C       -14.7861659698       -3.1119208091       -2.7355830145
 O       -15.0051688313       -4.0401306619       -1.9918212750
 C       -13.4597092534       -3.0643802030       -3.5210901705
 C       -13.4160719105       -4.4220446783       -4.3042902077
 C       -12.2205722406       -4.5925572544       -5.3530596593
 O       -11.2568448998       -5.2630969170       -5.2458223539
 C       -12.3004559327       -3.7214465180       -6.7588837840
 C       -11.2783572710       -2.6047625591       -6.4505413037
 O       -11.8038727769       -1.6456260103       -5.8682599106
 C        -9.7889655203       -2.7202976888       -6.6331184842
 C        -9.0802002698       -1.3039481130       -6.6597415270
 C        -9.7033807672       -0.3154213584       -7.8639654820
 O        -9.9665743389       -0.7691120092       -8.9238343906
 C        -9.7125659029        1.2388418413       -7.6782145835
 C        -8.1390216183        1.5212157784       -7.5274603320
 O        -7.8159816652        1.9205307806       -6.4526075374
 C        -7.1165013064        1.2991422254       -8.6620330141
 C        -5.8616562214        0.5757090627       -8.0068413157
 C        -5.3781005051       -0.6650065630       -8.6278002336
 O        -5.9789685943       -1.1710716177       -9.6012867113
 C        -4.0791656040       -1.3869922077       -8.1452491527
 C        -3.0327195188       -0.3528743728       -8.7569453381
 O        -3.0370561134        0.8451877175       -8.4632135704
 C        -2.1094043336       -0.8421794034       -9.9145520410
 C        -2.0232300670        0.2037218091      -11.0476358912
 C        -1.1063451264       -0.1824884695      -12.2501416980
 O        -0.3124312077       -1.1701436364      -12.1767280427
 C        -0.9748272919        0.8827252411      -13.4281237459
 C         0.1646572715        1.9968492987      -12.9576012332
 O        -0.0118001447        2.7298663235      -11.9476324571
 C         1.4822727764        2.2696968933      -13.7952701730
 C         2.3921211929        1.0678165332      -13.8168006568
 C         2.5773053066        0.1741307853      -15.1569502360
 O         1.9927818271        0.4174597573      -16.1749649563
 C         3.5750271695       -1.0254134439      -15.1720206091
 C         4.8314031712       -0.4807151075      -15.9700668579
 O         4.8441909379       -0.5830960591      -17.1852724799
 C         5.9097792982        0.4228259409      -15.2331242456
 C         7.0725545031        0.8826178703      -16.0864076189
 C         7.9292267214       -0.1912877016      -16.8963535007
 O         7.9956277949       -1.3428418827      -16.6896129927
 C         8.5577356021        0.6242088025      -18.2251420128
 C         9.6296751735       -0.2940153651      -18.9236462916
 O         9.2259477726       -1.2284080859      -19.6359059402
 C        11.0949509866       -0.1762159526      -18.3952982920
 C        12.0685257957       -1.1754313556      -19.0099566291
 C        11.7475071759       -2.6723563069      -18.8462209891
 O        10.8101502478       -3.0727410825      -18.1081198277
 C        12.6619369304       -3.6302477859      -19.6320791077
 C        11.7601808098       -4.6736655164      -20.5706546806
 O        12.3370746360       -5.7174746376      -20.8438467202
 C        10.3599414388       -4.1696805876      -21.2185118712
 C         9.5061393338       -5.3535368395      -21.7060272359
 C         8.3437229312       -5.6899174125      -20.8247108549
 O         7.9727511117       -4.8301418047      -20.0382067275
 C         7.5743360096       -7.0091970318      -20.9574918867
 C         7.5626804902       -7.4055921264      -19.4480214410
 O         6.5722718845       -7.1546502548      -18.7911795065
 C         8.7139503361       -8.0521405417      -18.6988889212
 C         8.5169268883       -7.7086885863      -17.2064350489
 C         8.8687160304       -6.2287748830      -16.9023134794
 O         9.2722902019       -5.5046288866      -17.7749956332
 C         9.0076458301       -5.7435812176      -15.3076589560
 C         7.7182807227       -4.8397205144      -15.1454440089
 O         7.4192984895       -3.9962246902      -15.9735161559
 C         6.8951934092       -4.7743596119      -13.7777271025
 C         9.0152738990       -6.9188757690      -14.3308349441
 C        10.2591465092       -4.8368868433      -15.2347893411
 C         6.1376438276       -6.7945347615      -21.4151323173
 C         8.2754865374       -8.0414318173      -21.8722363087
 C        13.8222956268       -3.0554353812      -20.5208787567
 C        13.2524974620       -4.6827846717      -18.4961895602
 C         7.4478219392        0.9142266064      -19.2287259037
 C         9.1757791402        1.9541129441      -17.7040664193
 C         4.1233437022       -1.5747011783      -13.9132133224
 C         2.8092909100       -2.1226824224      -15.9314311935
 C        -0.5444047670        0.1285871988      -14.5896001937
 C        -2.3852993996        1.6041214468      -13.6770825900
 C        -3.8722778014       -1.2490100571       -6.6053155982
 C        -3.9376673742       -2.8879143794       -8.6626982331
 C       -10.3877274736        1.9215655070       -8.8769429045
 C       -10.4423991258        1.7260536449       -6.4304928514
 C       -11.9047160672       -4.6263301022       -7.9140261783
 C       -13.6372635735       -3.0091626884       -7.1262514352
 C       -16.9044822626       -2.2751257029       -3.8530219890
 C       -15.1461029720       -0.5264336690       -3.3293526171
 C       -19.8351802740       -2.8697548356        2.7628750191
 C       -21.2729983702       -0.9965462197        1.7469410429
 C       -17.2827130287        4.3539600561        4.6101621332
 C       -17.6866320623        4.7711206145        2.0586246437
 H       -14.2539813065        3.5072103848        4.1775392221
 H       -14.7571578181        5.0478041369        3.4215927696
 H       -13.6608940204        3.9604088615        2.6396990842
 H       -19.4243913231        2.3452002736        4.9130502261
 H       -17.9577705580        1.3544865662        4.8707788017
 H       -20.6371029660        0.8867802912        3.2567170730
 H       -20.1874699217       -0.0162796494        4.5686148767
 H       -18.3999632630       -3.4260256691        0.8379445057
 H       -17.0577557209       -2.3977153186        1.2006114791
 H       -18.2643000887       -2.8022103391       -1.6801928584
 H       -16.9946838681       -3.6794738622       -0.9334447356
 H       -12.6337368939       -2.9086250535       -2.8613578209
 H       -13.3765712286       -2.3182366879       -4.2783369677
 H       -14.3859871910       -4.4682616090       -4.8130834696
 H       -13.3168225168       -5.2894425596       -3.6347042645
 H        -9.5927792696       -3.2942530918       -7.5585501733
 H        -9.3517310959       -3.4121337095       -5.9064847132
 H        -8.0197075342       -1.3822031442       -6.7665682813
 H        -9.2862232620       -0.7484786663       -5.7816833128
 H        -6.8613917546        2.3071333765       -9.0527383785
 H        -7.6841229633        0.8388687258       -9.5112933557
 H        -6.0996007942        0.3631548048       -7.0192172157
 H        -5.1251175457        1.3862192268       -7.9637803974
 H        -2.4229870320       -1.7619180561      -10.3866686480
 H        -1.1267927495       -1.1329700839       -9.4921073785
 H        -1.6462587308        1.3143749410      -10.8562616571
 H        -3.0024214001        0.2104352293      -11.5128660460
 H         1.9634986711        3.2514607459      -13.4706716375
 H         1.1996935695        2.4547408897      -14.8317865799
 H         1.9130214401        0.3324526802      -13.1639048055
 H         3.4422987041        1.3557217047      -13.5521859870
 H         6.3921521561       -0.2676486519      -14.5186216332
 H         5.5560013465        1.2820967162      -14.6857572588
 H         7.7095313812        1.4331669808      -15.3445417498
 H         6.6153551899        1.6472279645      -16.7808628342
 H        11.1139697481       -0.1073518669      -17.3156748714
 H        11.4645175882        0.7905497577      -18.7031858448
 H        13.0626370123       -0.9075732089      -18.6914407371
 H        11.9767352256       -1.0460634899      -20.1255686708
 H        10.6135024262       -3.3803748221      -21.9605838238
 H         9.7197800669       -3.5591606057      -20.4829839892
 H        10.0886334966       -6.2839965973      -21.6316376981
 H         9.3933733422       -5.2657303959      -22.8203475888
 H         9.5594495876       -7.5113527103      -19.0651209099
 H         8.7190839954       -9.1616773080      -18.8165885538
 H         9.1665137392       -8.3501965395      -16.6327028183
 H         7.5190949859       -7.9227721545      -16.8794764761
 H         6.5853392493       -5.7342440935      -13.3230303744
 H         6.0639662076       -3.9198620736      -13.8311031223
 H         7.6976814646       -4.4787950073      -13.0471065759
 H         8.0999501073       -7.4370904219      -14.2513746050
 H         9.3050898657       -6.3959990893      -13.4401155970
 H         9.7654968697       -7.7436470422      -14.5367702599
 H        10.2846126484       -4.0444454357      -15.9305087514
 H        11.0864251921       -5.4535072674      -15.4511060234
 H        10.4015423701       -4.3237096455      -14.2834078253
 H         5.5028859317       -7.6146790453      -21.1352941023
 H         6.1290683807       -6.6882050453      -22.5323981508
 H         5.6799705667       -5.9411278161      -20.8752054747
 H         7.5000286641       -8.6963020864      -22.2305715345
 H         9.1195497090       -8.4916969113      -21.4429150467
 H         8.6921591620       -7.5465816970      -22.6873582181
 H        13.6349662431       -2.0327044689      -20.8765137837
 H        13.8256865060       -3.6815219828      -21.4453678179
 H        14.8142009227       -3.0414932844      -20.0088921433
 H        13.2637290321       -5.6826645059      -18.9275830410
 H        12.5686389288       -4.9340714740      -17.7176502435
 H        14.2058725359       -4.3202086352      -18.2226786452
 H         6.6049137900        1.4994563777      -18.8088896599
 H         6.9703626963       -0.0659683132      -19.5529187696
 H         7.8157898835        1.3299794445      -20.2055829373
 H         9.2399796864        2.6040610122      -18.5547756869
 H        10.1227167137        1.6304009127      -17.3570614601
 H         8.5750074558        2.5665756810      -17.0519315961
 H         3.4583097894       -2.1722134585      -13.3381433525
 H         4.4575431515       -0.9260078835      -13.1430759500
 H         4.9590786943       -2.2246492777      -14.0794266167
 H         2.6742611981       -2.9810414563      -15.1798173589
 H         3.2835757973       -2.5903817040      -16.7191805581
 H         1.8250502219       -1.7680504433      -16.1500415520
 H        -1.3072092511       -0.5592796652      -14.9263957501
 H         0.2763263555       -0.5210746523      -14.4545396521
 H        -0.3535959478        0.7162619573      -15.4508329238
 H        -3.0231083236        1.5403776468      -12.8273569005
 H        -2.8405093139        1.2317140662      -14.5454583373
 H        -2.2786316947        2.6354135788      -13.9658127102
 H        -4.5383273825       -0.4101398688       -6.2225168112
 H        -2.8948767639       -0.8451576741       -6.2934789783
 H        -4.0523458550       -2.1546617399       -6.0180990877
 H        -4.7284656456       -3.4667870512       -8.1394416748
 H        -3.0103182941       -3.4588416425       -8.3456106555
 H        -4.1144393962       -2.8778724289       -9.6842680804
 H       -10.3439575484        2.9693820192       -8.8001550164
 H       -11.4128605429        1.6044077622       -8.8476456811
 H        -9.8380526921        1.5135760247       -9.7372998488
 H        -9.7670228036        1.5836120334       -5.5949378515
 H       -11.3871010881        1.2115923979       -6.3897642386
 H       -10.5540965298        2.7429980250       -6.5161428117
 H       -10.9028029008       -4.9993517607       -7.7671309016
 H       -11.8260128038       -4.0810922564       -8.7930434772
 H       -12.4575450320       -5.5400739120       -8.1581462698
 H       -14.4905819199       -3.5822017310       -7.4820878080
 H       -13.3702285013       -2.2676840982       -7.9549606164
 H       -14.0519891669       -2.4014769040       -6.2972498290
 H       -17.7531668329       -1.6103737473       -4.0994134043
 H       -17.4792123197       -3.2067660877       -3.6223106616
 H       -16.3374745262       -2.3607635354       -4.8429278478
 H       -15.8804658427        0.2690020038       -3.2873041889
 H       -14.8421494554       -0.6374712377       -4.3761749201
 H       -14.3198281931       -0.2946740074       -2.6968759967
 H       -20.3989565049       -2.7177815348        3.6773806914
 H       -18.8856252481       -3.0767650451        3.1019530780
 H       -20.2747986666       -3.6311055550        2.1228139539
 H       -21.7417820813       -1.2062939507        2.6425930403
 H       -21.6360338829       -1.6927517181        0.9608458916
 H       -21.4171006099       -0.0195314247        1.4727108828
 H       -17.0249520181        3.6829491598        5.3739061434
 H       -18.2987310275        4.7146668802        4.7409940082
 H       -16.7662517200        5.3055115446        4.6471384201
 H       -16.9118188448        5.4317905556        2.1049279417
 H       -18.5841620605        5.1926199986        2.4427191539
 H       -17.8444568451        4.3839217554        1.0420942927
 Na      -16.8652067485        0.4657435269        0.8583432635
 Na        8.4247017525       -3.2166665020      -18.0977753034
