232

 C       -14.4444417749        3.5741011928        3.1544429877
 C       -15.8320293117        2.9037147146        2.7143168140
 O       -15.8042220763        2.0632314870        1.8783922814
 C       -17.1292421219        3.6779800580        3.2643155576
 C       -18.3776852751        2.8035714483        2.9587779554
 O       -18.5561529408        2.5820577970        1.7975943486
 C       -19.3293570916        2.2919238681        4.0672461657
 C       -20.1494195395        1.0109107641        3.6839187523
 C       -19.1894713216       -0.0316302257        3.0459938022
 O       -17.9647613792        0.0204684429        3.0500618154
 C       -19.8504265233       -1.3018160555        2.2765246851
 C       -19.0229912789       -1.3729900147        0.9757213378
 O       -19.0393498348       -0.3539018887        0.2947146078
 C       -18.4080146496       -2.7063762480        0.4045615700
 C       -17.9306283409       -2.6670811229       -1.0236382036
 C       -16.8237708964       -1.7982279928       -1.4157803002
 O       -16.4227560148       -0.8697292459       -0.7440580969
 C       -16.1229421916       -2.0297910698       -2.7436191383
 C       -15.0387495104       -3.2395920645       -2.6467705997
 O       -15.2652295412       -4.2251147488       -1.9890376770
 C       -13.8117050003       -3.2561495423       -3.6243129745
 C       -13.5516550514       -4.4214757234       -4.5059245087
 C       -12.2520138800       -4.4647489472       -5.2813696231
 O       -11.2838009585       -5.1595974543       -4.9601601930
 C       -12.0121745164       -3.5695435967       -6.6340943932
 C       -10.9222827146       -2.5630768798       -6.2358375261
 O       -11.4096178644       -1.5961843419       -5.6134580669
 C        -9.4366650664       -2.6099431637       -6.5722821124
 C        -8.7832700841       -1.2822294956       -6.8648393404
 C        -9.5464608558       -0.4025076801       -7.8943700462
 O       -10.2508387403       -0.8408524427       -8.8220693607
 C        -9.3191514923        1.1552122559       -7.6298947300
 C        -7.7557092915        1.4639027158       -7.4308865922
 O        -7.2231964498        1.9226885081       -6.4206799431
 C        -6.9076441293        1.1693544059       -8.6346472293
 C        -5.4648982002        0.7277792553       -8.2826465984
 C        -5.1639777757       -0.8052178964       -8.6249138964
 O        -5.9886810908       -1.4474613815       -9.1506567092
 C        -3.7146519971       -1.5124985264       -8.1720833838
 C        -2.5925542865       -0.5076437298       -8.9000883343
 O        -2.1105843964        0.4071523504       -8.2761374101
 C        -2.1381705027       -0.8815887184      -10.2866080918
 C        -1.6025554698        0.2022184487      -11.1973491496
 C        -0.9970081020       -0.2668077527      -12.5094380866
 O        -0.4506651407       -1.3088771747      -12.5984769982
 C        -1.0415937267        0.7383859654      -13.7839650967
 C        -0.0915094516        1.8520212185      -13.3017200536
 O        -0.3827527034        2.6141057151      -12.4654424032
 C         1.4684962248        1.8205931570      -13.8928367324
 C         2.1181936556        0.4583646269      -13.9458450207
 C         2.7418587919        0.2261398729      -15.3843044077
 O         2.4556953808        0.8456407921      -16.3894669004
 C         3.4864091088       -1.1768056484      -15.6690699486
 C         4.8349116085       -0.5543222579      -16.2297239821
 O         4.9100133187       -0.2958408878      -17.4004581295
 C         6.0200404906       -0.0839543007      -15.3229020766
 C         7.0670254948        0.7428370079      -16.0965158864
 C         7.8053575744       -0.0273087129      -17.2250450476
 O         7.8965237090       -1.2689176765      -17.0712449619
 C         8.4410582446        0.7040920845      -18.4229924758
 C         9.4610262328       -0.3051956887      -19.0094011524
 O         9.0065781038       -1.3633623007      -19.3538942301
 C        10.9792304529       -0.1027654577      -18.9909895044
 C        11.7266801994       -1.2373840076      -19.8591090617
 C        11.8392935975       -2.5702068138      -19.0282050414
 O        11.2516054101       -2.6194198047      -17.9764427037
 C        12.5442043568       -3.8213092086      -19.5631250284
 C        11.4544613804       -4.7866978064      -20.3351566711
 O        11.2398419482       -5.9755172884      -20.1902761088
 C        10.4619611275       -4.0805119212      -21.2501831538
 C         9.3431884383       -4.9778481407      -21.6365881038
 C         8.3504986041       -5.3688672639      -20.4723016990
 O         8.0824923916       -4.6282405517      -19.5468991973
 C         7.6475590003       -6.7858398703      -20.5851451935
 C         7.3358327916       -7.3189614102      -19.1048703645
 O         6.2342219734       -7.4254380457      -18.6441352169
 C         8.5832628725       -7.6801828205      -18.2497051554
 C         8.3852163690       -7.4654280298      -16.7920966464
 C         9.1016734565       -6.1289592692      -16.4393997062
 O         9.6992966669       -5.5363234876      -17.3170592571
 C         8.9964650790       -5.5986545349      -15.0735663537
 C         7.6559470735       -4.7885440428      -15.2156494144
 O         7.4562886701       -3.8982092218      -16.0260896452
 C         6.5887126974       -4.9185265041      -14.0533815094
 C         8.8784141560       -6.8080279762      -14.0421100701
 C        10.1600375525       -4.7302811276      -14.7611091099
 C         6.2906417140       -6.5796577081      -21.2997611680
 C         8.4619186854       -7.8496387339      -21.4371916452
 C        13.6965402457       -3.4620990419      -20.5103032707
 C        13.0471982521       -4.6873328787      -18.3417385481
 C         7.3904137888        0.9029984355      -19.5776945805
 C         9.0799443173        1.9657395317      -17.8434783074
 C         3.7100447566       -2.0507522926      -14.4392968942
 C         2.6166924341       -1.7501284689      -16.8102112171
 C        -0.6319500545        0.0203404437      -15.1367386877
 C        -2.4677429595        1.2732000061      -13.8324625185
 C        -3.6478496909       -1.5180859310       -6.5585255774
 C        -3.7001663490       -2.9603445653       -8.7158060970
 C        -9.8078744041        1.8557655876       -8.9143064344
 C       -10.2060978632        1.7027885555       -6.4997673054
 C       -11.6386924034       -4.6427648361       -7.7392012039
 C       -13.2547895333       -2.7580066052       -7.1825087551
 C       -17.1994329719       -2.4621805974       -3.7171846802
 C       -15.4736514536       -0.6433069914       -3.2733846405
 C       -19.7751601676       -2.5697245049        3.1176584056
 C       -21.3245516692       -1.0810348591        1.6725291103
 C       -16.9674420734        4.2577079584        4.7839767944
 C       -17.3520237154        4.9203154906        2.2535644678
 H       -14.3126481786        4.0011650875        4.1834049345
 H       -14.3975070697        4.5018748868        2.5653332332
 H       -13.5657943189        2.9440460535        2.9890824123
 H       -20.0798659704        3.1553859139        4.2865996847
 H       -18.9188204011        2.1837382230        5.0998395507
 H       -20.9740528640        1.2115626465        2.9819005204
 H       -20.5737102254        0.5194803195        4.6177683482
 H       -19.1849361002       -3.5035190839        0.4557858192
 H       -17.5577935692       -3.0340873989        1.0698435629
 H       -18.8970629606       -2.4800607850       -1.5377458887
 H       -17.6959818331       -3.6019616579       -1.4340498832
 H       -12.9688946132       -3.1441574556       -2.8891209006
 H       -13.8848029777       -2.3393716188       -4.1954465829
 H       -14.4315426487       -4.4355575166       -5.1937483566
 H       -13.6321023162       -5.2923887551       -3.8913387848
 H        -9.2675773430       -3.3605860723       -7.3201553342
 H        -8.9080647146       -2.8887365026       -5.6337913818
 H        -7.7873256225       -1.3266364686       -7.1993827584
 H        -8.7964970374       -0.7330043034       -5.9205201698
 H        -6.8749779918        2.2080655956       -9.0179425240
 H        -7.3165208787        0.5041994406       -9.4479465241
 H        -5.2808356584        0.8994987060       -7.1999670607
 H        -4.6893784595        1.2203971011       -8.7735525690
 H        -3.1195592124       -1.1826428037      -10.7488031516
 H        -1.5349251968       -1.7675430632      -10.2609636019
 H        -0.7749401953        0.6928041681      -10.6371722806
 H        -2.3401115135        1.0619918916      -11.3852471003
 H         2.0543383708        2.4804756715      -13.2981089151
 H         1.3815045286        2.3110921729      -14.9045233857
 H         1.4067814052       -0.4069302621      -13.7820013147
 H         2.8808574618        0.3182743195      -13.1407587464
 H         6.5370402913       -0.9304933129      -14.8393272503
 H         5.5975622109        0.5157552735      -14.5170177139
 H         7.7015462883        1.3219529160      -15.3736832479
 H         6.4431609478        1.5607943572      -16.5809354054
 H        11.3228568243       -0.3372241712      -18.0286285471
 H        11.2640580994        0.9112558416      -19.3098210664
 H        12.7522285598       -0.8877838167      -19.9881113309
 H        11.2115764145       -1.4721669299      -20.7972051566
 H        10.8541544169       -3.4268268424      -22.0734958882
 H         9.9217243257       -3.3128568886      -20.6147293507
 H         9.8643864211       -5.8080930086      -22.1668913781
 H         8.8080125489       -4.5424572541      -22.4877369981
 H         9.4939810400       -7.2128924402      -18.7042732333
 H         8.7035221394       -8.7389591128      -18.4878721420
 H         8.9242075779       -8.2484236556      -16.2720954566
 H         7.3638782406       -7.4513820010      -16.5389271810
 H         5.7499461751       -5.6541957961      -14.3077594218
 H         6.0724331932       -3.9675226199      -13.9401519432
 H         7.0737036104       -5.2999593603      -13.0597097012
 H         7.8589600213       -7.2137246307      -14.2268945818
 H         8.9777445056       -6.3961803575      -13.0299433787
 H         9.5386949347       -7.5910266963      -14.2114794084
 H        10.1681058761       -3.9169461822      -15.4711604552
 H        10.9992404359       -5.3803936275      -14.8609246521
 H        10.2868142388       -4.2375593476      -13.8440821899
 H         5.7768377298       -7.5580348270      -21.3135976741
 H         6.5096437762       -6.1396022380      -22.2900993705
 H         5.6625936908       -5.8751924493      -20.7966322289
 H         7.9231974637       -8.7387986255      -21.5927167561
 H         9.4200712064       -8.0798833786      -21.0375083331
 H         8.4830584887       -7.4332316261      -22.4506555304
 H        14.6451900663       -3.4736347644      -19.9178361618
 H        13.6269444160       -2.5390786979      -21.0475441694
 H        13.8702652671       -4.1399593263      -21.3632772529
 H        13.7969763414       -5.3227604503      -18.7810886218
 H        12.2578911802       -5.3534878853      -17.9674589348
 H        13.5746337676       -4.0769060909      -17.5888627510
 H         6.5292770150        1.5667237295      -19.2471817560
 H         7.0302485894       -0.0520690016      -20.0326413373
 H         7.8040850758        1.4852716942      -20.4186841113
 H         9.5778457164        2.4903992224      -18.6382549132
 H         9.8247936701        1.9236756751      -17.0315615441
 H         8.2073818189        2.4753439929      -17.4515885375
 H         2.8442404413       -2.6224387446      -14.1850291277
 H         4.0152787562       -1.6091644896      -13.5375055971
 H         4.4003840738       -2.8825244195      -14.5371390220
 H         2.1592781918       -0.9601735468      -17.3429222164
 H         1.7699515494       -2.4507511220      -16.5044725593
 H         3.1811191048       -2.2398601952      -17.5805650460
 H        -1.4043857033       -0.4065382726      -15.6917736726
 H         0.0641930795       -0.8210222243      -15.0902084779
 H        -0.1928657272        0.6899209744      -15.8435189090
 H        -2.4848640199        2.2913722409      -13.5436660764
 H        -3.0431720695        0.8087020883      -13.0631730404
 H        -2.9199181973        1.1525871456      -14.8007200811
 H        -2.9489589000       -0.7992821062       -6.2331018426
 H        -3.1903395305       -2.4305067653       -6.1518856873
 H        -4.5972865266       -1.2922104794       -6.0266091570
 H        -4.4890946114       -3.5214497950       -8.2854002191
 H        -2.7441966530       -3.3481440563       -8.6988587493
 H        -4.0152106286       -3.0239955309       -9.7947863966
 H        -9.5006764140        2.9051440892       -8.7926083636
 H       -10.8621583997        1.7410175014       -8.8480936992
 H        -9.4574806391        1.3620908649       -9.7772126909
 H        -9.8475300448        1.3767906542       -5.5826171816
 H       -11.2181386823        1.5894780690       -6.6460530225
 H        -9.9978384359        2.7686306473       -6.6316508927
 H       -10.7525510569       -5.2329171166       -7.5653288057
 H       -11.4594624513       -4.1643503072       -8.7111008816
 H       -12.4207675751       -5.3099529952       -7.9227952532
 H       -14.2290743631       -3.2686688009       -6.9099440542
 H       -13.2998589124       -2.8565403741       -8.2297773056
 H       -13.2854847581       -1.7054266914       -6.8630577249
 H       -18.0205745594       -1.6856836689       -3.7785120543
 H       -17.6578279883       -3.4693076180       -3.5017644640
 H       -16.8369869937       -2.6392844766       -4.7647518009
 H       -16.2500214747        0.0496934907       -3.1672862972
 H       -15.2780627469       -0.7390011293       -4.3304288795
 H       -14.5956155288       -0.2918046502       -2.7058093276
 H       -20.4914698672       -2.4448306922        3.8528426486
 H       -18.7508973800       -2.7209634092        3.5216704331
 H       -20.1200622863       -3.3669030302        2.4932763775
 H       -22.0637689080       -1.0361119834        2.4474574171
 H       -21.6129455886       -1.8183652563        1.0422375836
 H       -21.2105300707       -0.1373752676        1.1621676021
 H       -16.6986142110        3.5137875399        5.5119895837
 H       -17.9319935452        4.7657307500        4.9472096739
 H       -16.2072876006        4.9613994044        4.8758628354
 H       -16.5510700880        5.6754519190        2.3902142119
 H       -18.3297932190        5.3453223006        2.4186442694
 H       -17.2487261061        4.4778128971        1.3118674413
 Na      -17.1900389870        0.6520499898        0.8829838912
 Na        8.9286822829       -3.2278587283      -17.7899080916
