232

 C       -14.4154167927        3.3351065990        3.2610940214
 C       -15.7367136790        3.0289829966        2.6606737367
 O       -15.8941676941        2.2197168669        1.7558089303
 C       -17.1080348519        3.8651902159        3.1957144014
 C       -18.3707980083        2.8886560478        2.8043120224
 O       -18.6530720774        2.5585113977        1.6407615998
 C       -19.2743645075        2.3773024626        3.9961321906
 C       -20.1906301497        1.2423044472        3.4775315642
 C       -19.2510025008        0.0149761381        3.0224102952
 O       -18.0508054756        0.0258268115        3.2380035264
 C       -19.9577732930       -1.2220361071        2.2953598565
 C       -19.1762891919       -1.4308064689        0.8790039919
 O       -19.1028562316       -0.4447160251        0.1736154021
 C       -18.4696625004       -2.6994438946        0.5539537968
 C       -18.0444009573       -2.7726711257       -0.9249722169
 C       -16.8949430638       -1.8499030655       -1.4287451903
 O       -16.4156267835       -0.9555542466       -0.7026590660
 C       -16.3285212575       -2.0199608797       -2.7992094419
 C       -15.2134825509       -3.2109882552       -2.7150051999
 O       -15.3880000175       -4.1037823797       -1.9462014866
 C       -13.8950547490       -3.1387975933       -3.5750374171
 C       -13.7226707545       -4.4627316109       -4.5157424163
 C       -12.2581519920       -4.3299141646       -5.2159361469
 O       -11.3745401713       -4.9910856098       -4.7543984287
 C       -11.9436967274       -3.5802959869       -6.5954705633
 C       -10.8427269106       -2.5534979970       -6.2225943413
 O       -11.1606991944       -1.6331196374       -5.4731168533
 C        -9.4009702501       -2.7333066718       -6.7024041655
 C        -8.8367428387       -1.3257653940       -6.6663515892
 C        -9.4253345048       -0.3895128077       -7.7272585284
 O       -10.2160526718       -0.8185240324       -8.4892447991
 C        -9.1953449421        1.2906320304       -7.7404042609
 C        -7.6759124461        1.3661065447       -7.5709806054
 O        -7.2369468905        1.5167644887       -6.4697514263
 C        -6.7032927281        1.1512884956       -8.7235946593
 C        -5.2672925880        0.7308800956       -8.3046869823
 C        -4.9863921714       -0.8186995786       -8.5330990149
 O        -5.9642653989       -1.5279352456       -8.8486172402
 C        -3.6389160808       -1.4059238942       -8.2715480749
 C        -2.5374046207       -0.5971386259       -8.9763714544
 O        -1.7118043391        0.0470074523       -8.3439445087
 C        -2.3734080835       -0.8960277205      -10.5360529763
 C        -1.3924278819        0.0702553744      -11.1643260018
 C        -1.0998628630       -0.3997558500      -12.6028188495
 O        -0.4307648314       -1.4405274308      -12.8088801764
 C        -1.1671377039        0.5967222955      -13.7647548570
 C        -0.0984637571        1.6965460780      -13.3944109892
 O        -0.5030222259        2.6582306854      -12.6628459602
 C         1.2720616597        1.7024015712      -13.8882916371
 C         2.1975294312        0.4502027574      -13.9942070113
 C         2.6705947781        0.3136181870      -15.4734523194
 O         2.6257612381        1.2739941721      -16.1750714462
 C         3.4270119389       -1.0528656177      -15.9826890536
 C         4.8405537937       -0.5522645494      -16.5030660730
 O         5.0635509332       -0.3768624212      -17.6869159649
 C         5.8815928052       -0.1780297884      -15.5073910908
 C         6.9742839062        0.6913012339      -16.1937964580
 C         7.7546112073       -0.1905859391      -17.1206960513
 O         7.7980991586       -1.3650014890      -17.0510561549
 C         8.4642260798        0.5214757808      -18.4037003705
 C         9.4459713972       -0.5000562334      -19.1694988155
 O         9.0242830436       -1.5063857641      -19.7454189155
 C        10.8672615679       -0.1209117392      -19.4009836719
 C        11.7809221253       -1.2634518099      -19.7664425823
 C        11.7776223642       -2.5117514196      -18.9405694782
 O        11.3356266949       -2.5339820557      -17.7878561756
 C        12.4713566651       -3.7319917249      -19.4866226183
 C        11.1863099933       -4.6254405670      -20.1167020510
 O        11.0076965561       -5.7153278822      -19.6846675153
 C        10.3547784012       -3.9116878625      -21.1792159059
 C         9.0630557053       -4.7416814064      -21.6518685903
 C         8.2875402770       -5.3341853621      -20.4477786036
 O         8.2595725529       -4.7786044990      -19.3790567487
 C         7.5565415547       -6.7448401295      -20.6390398966
 C         7.4788772034       -7.3819097766      -19.1512947713
 O         6.3995662553       -7.3350082256      -18.6080396176
 C         8.6226816945       -7.9490029880      -18.3142884428
 C         8.4072479072       -7.4344612358      -16.8349149291
 C         9.1590327463       -6.1761518155      -16.3700368418
 O         9.9420193654       -5.5924514058      -17.0682541914
 C         8.9398714300       -5.5132550688      -14.8422591223
 C         7.5839292127       -4.7191180534      -15.0620209050
 O         7.4719820713       -3.8736177689      -15.9308483971
 C         6.3403814363       -4.9519677985      -14.1495394145
 C         8.8056934570       -6.5798683725      -13.7382569523
 C        10.1906793678       -4.5379354690      -14.5591267555
 C         6.1179492189       -6.4843442806      -21.0834053901
 C         8.4186677618       -7.6762623361      -21.4904439772
 C        13.4525342456       -3.6201470274      -20.5662593471
 C        13.0033482517       -4.6969095224      -18.3864838184
 C         7.2697256355        0.9634218694      -19.3812274290
 C         9.1568366742        1.8463561677      -18.0922818863
 C         3.6628403276       -2.0739086767      -14.8057677037
 C         2.8966152035       -1.8897218987      -17.1280710423
 C        -0.9129700042        0.0203242980      -15.1476241805
 C        -2.5968856702        1.3067674133      -13.8572557012
 C        -3.3465474595       -1.3486987328       -6.7235696519
 C        -3.6690107091       -2.8933954357       -8.7803427955
 C        -9.6804045160        1.8996474283       -9.1725653022
 C        -9.7796212684        1.8644653208       -6.4717399786
 C       -11.6005827048       -4.6130048400       -7.6667133407
 C       -13.2420160370       -2.8685516987       -7.0669007809
 C       -17.3068132500       -2.3803980207       -3.8556514057
 C       -15.5291265634       -0.7131879359       -3.2052256920
 C       -19.7318568405       -2.4808964539        3.2876114584
 C       -21.4474179990       -1.0873869123        1.9824834954
 C       -17.0081456126        4.1171139360        4.6929602443
 C       -17.0754129366        5.1373824093        2.3807996899
 H       -14.4513440512        3.3211482440        4.3352036401
 H       -14.1352749813        4.3634510111        3.1251786576
 H       -13.7018047552        2.6026057429        2.9044845235
 H       -19.8389040166        3.0696550378        4.5492842577
 H       -18.6341354948        1.9469575419        4.7853713883
 H       -20.7331206352        1.5956982653        2.5721676497
 H       -20.8631077743        0.9573815819        4.2605906998
 H       -19.2372852492       -3.4524314866        0.7564408958
 H       -17.6092753117       -2.8747036337        1.1643215820
 H       -18.9507153409       -2.6647304586       -1.4910884145
 H       -17.7718587949       -3.8243005095       -1.2574513766
 H       -13.2014577142       -3.0886601117       -2.7178574384
 H       -13.7950986281       -2.2210561849       -4.1804216451
 H       -14.5852484477       -4.4966096192       -5.1609016916
 H       -13.6793012083       -5.4209543881       -3.9273427169
 H        -9.4560509087       -2.9485071952       -7.8054080427
 H        -8.7957272930       -3.4117434241       -6.1142651213
 H        -7.7356620972       -1.3399555977       -7.0325067556
 H        -8.8527922293       -0.8526059486       -5.6659684537
 H        -6.4879667998        2.0020845071       -9.3707193720
 H        -7.1033502459        0.3755138011       -9.3115481298
 H        -5.0840466439        0.9397199394       -7.2378610751
 H        -4.4273698108        1.3150829011       -8.8602368928
 H        -3.2384363493       -0.8456676836      -11.1475039501
 H        -1.9562824320       -1.9296040451      -10.5069539774
 H        -0.4677548261        0.2779399620      -10.6120493143
 H        -1.8018711777        1.0083247039      -11.2627274147
 H         1.8119699944        2.5692020845      -13.3574522778
 H         1.1826890363        2.0529694444      -14.9463210916
 H         1.8649698046       -0.5168171392      -13.6696978930
 H         3.1020704540        0.6179711188      -13.3934559117
 H         6.3365935262       -1.1078344110      -15.1755039946
 H         5.4037286501        0.3023816667      -14.6451636690
 H         7.7186094219        1.0047514493      -15.5089456307
 H         6.5726030094        1.5889313522      -16.5432643007
 H        11.3694904174        0.2197633906      -18.4436968418
 H        10.8479207425        0.5543717308      -20.2604983061
 H        12.7981293643       -0.8814486710      -19.6516495742
 H        11.6315699795       -1.5703217274      -20.7978804399
 H        10.9844949389       -3.4860437491      -21.9348108637
 H         9.8026760631       -3.0300682312      -20.8561232152
 H         9.3062633383       -5.4926150625      -22.3457081989
 H         8.4593054433       -4.0651739313      -22.2408263195
 H         9.5457478806       -7.6719314524      -18.7692515831
 H         8.6351435374       -9.0629043169      -18.4202108197
 H         8.7071317164       -8.1788010124      -16.1055404293
 H         7.3547585082       -7.1272315788      -16.6660934981
 H         5.7227310312       -5.7988980040      -14.3909554907
 H         5.6934338158       -4.0803787787      -14.2919714881
 H         6.6707507379       -4.9872978062      -13.1605788482
 H         8.0004139248       -7.2740331967      -13.9209392387
 H         8.6667596109       -6.0848446477      -12.7799797738
 H         9.8479323233       -7.0836547454      -13.7512697119
 H        10.1728785124       -3.6081287413      -15.1252374119
 H        11.1475009219       -4.9977487323      -14.3913817911
 H        10.0077627839       -4.1867098815      -13.5109350669
 H         5.4321292236       -7.2208376528      -20.6914072843
 H         6.0972053550       -6.4221159496      -22.1753549858
 H         5.8347940851       -5.4534326948      -20.7642875517
 H         8.1935950497       -8.7388087257      -21.3294828289
 H         9.4730882271       -7.6509386767      -21.3119315530
 H         8.2176057029       -7.4266053970      -22.4994702734
 H        14.4097075543       -4.1070257944      -20.3752179071
 H        13.7075735939       -2.5904211894      -20.8955510974
 H        13.0710361288       -3.9950092306      -21.5290340621
 H        13.3365387970       -5.5415193643      -18.9420900359
 H        12.3329141904       -4.8092882868      -17.5061926860
 H        13.9422450840       -4.3140442028      -17.9919793664
 H         6.6131271599        1.5748989161      -18.7945860354
 H         6.7700178342        0.1928384561      -19.8879380486
 H         7.5544172034        1.6579656406      -20.1083786203
 H         9.3127724390        2.3560131006      -19.0420398256
 H        10.2010092148        1.8250909441      -17.7085734527
 H         8.6693841343        2.3835531919      -17.2347430928
 H         2.7830013137       -2.5956577982      -14.3917697806
 H         4.2617420097       -1.7065397098      -13.9489981337
 H         4.1564993102       -3.0164852947      -15.0444030858
 H         1.7763709448       -2.0415091174      -17.1280163067
 H         3.3038474758       -2.8344125462      -17.0471984205
 H         2.9350796325       -1.4430896240      -18.1412133217
 H        -1.8413704886       -0.3805462377      -15.5967701898
 H        -0.2015452389       -0.7824122028      -15.2066295056
 H        -0.4967534239        0.6726229331      -15.9018653212
 H        -2.5819593327        2.3850994398      -13.7281510731
 H        -3.3023946239        0.9071637456      -13.1380250753
 H        -2.8811952801        1.1697693650      -14.9087167291
 H        -3.5667572666       -0.3032162033       -6.2991408326
 H        -2.3284998207       -1.6206480192       -6.3843358735
 H        -4.1105009339       -1.9263442792       -6.1786511667
 H        -4.5230569012       -3.4961449703       -8.4748098700
 H        -2.7067844402       -3.4155216237       -8.6757327738
 H        -3.7441803446       -2.8917281273       -9.8250804304
 H        -9.4246859511        2.9169199957       -9.0737187638
 H       -10.7518825688        1.6526202498       -9.1671629156
 H        -9.2744204829        1.3320087702      -10.0357327397
 H        -9.8306194445        1.0552377684       -5.6487221437
 H       -10.8423157192        2.1233417109       -6.8023702521
 H        -9.3120182045        2.7776915576       -6.1343657584
 H       -10.9842412469       -5.4414746600       -7.2557702657
 H       -10.9073589341       -4.2239621858       -8.4010781710
 H       -12.4891223021       -5.0306558657       -8.2621331612
 H       -14.0924930391       -3.4760390079       -7.2879762915
 H       -13.0301850819       -2.2469288000       -8.0071969226
 H       -13.4770425542       -2.1686408209       -6.2606596296
 H       -18.0274631297       -1.6409677348       -3.9038195117
 H       -17.7672542134       -3.3539335874       -3.7000561210
 H       -16.9059865134       -2.5079775628       -4.8279976510
 H       -16.1857361085        0.1729651573       -3.0630927040
 H       -15.3181428436       -0.8084586141       -4.2786429381
 H       -14.6553473031       -0.5893102049       -2.5844953867
 H       -20.3451536640       -2.2746426576        4.2102438743
 H       -18.6810508958       -2.5877565878        3.3825446332
 H       -20.1992207251       -3.3911517196        2.8401576021
 H       -22.0557366353       -1.2697806762        2.9105130587
 H       -21.7140572631       -2.0234565020        1.2850443933
 H       -21.6708032966       -0.1391396325        1.4394446755
 H       -16.6945102821        3.1805449435        5.1144843768
 H       -17.9555288182        4.4305403168        5.2304884343
 H       -16.1060421814        4.7298197019        4.8461617447
 H       -16.1484616616        5.6063687662        2.5191899254
 H       -17.7398610546        5.8252696991        2.9055119143
 H       -17.3324696281        4.9882667512        1.2916153385
 Na      -17.1368960476        0.6464176123        0.9046795978
 Na        9.1624099648       -3.3973597473      -17.6542896696
