232

 C       -14.3015445767        3.1823434438        3.4072459109
 C       -15.6109286014        2.9064508161        2.6502059449
 O       -15.5779909650        2.1541950865        1.6962731436
 C       -16.9014874969        3.7269458439        3.0813685882
 C       -18.1657121756        3.0125997989        2.6438648429
 O       -18.2766572952        2.6540619620        1.4765437993
 C       -19.3111881680        2.5750982651        3.4546452180
 C       -20.1297595239        1.4090519756        2.9208940812
 C       -19.3373080430        0.0373110831        2.8668921586
 O       -18.1197550517        0.1199095589        2.9249778581
 C       -19.9596167915       -1.2978097802        2.4174143492
 C       -19.4238687090       -1.4606579339        0.9393309323
 O       -19.7378437559       -0.6864376977        0.0290713021
 C       -18.5543065355       -2.6639470115        0.6494341392
 C       -18.0605328569       -2.6685386051       -0.8882048158
 C       -17.0405412138       -1.6752063978       -1.2229282601
 O       -16.6248693947       -0.7794008459       -0.4428708523
 C       -16.4533405718       -1.8262851480       -2.6229360215
 C       -15.4679408210       -3.1137589336       -2.7181610966
 O       -15.8666871277       -4.1642965803       -2.2423066630
 C       -14.1395850235       -2.8997677970       -3.3976608412
 C       -13.8380999848       -4.0372907168       -4.2751587702
 C       -12.3829843377       -4.1947457989       -4.8503069146
 O       -11.6438895156       -4.8799386906       -4.2156298608
 C       -12.0424555019       -3.5901075880       -6.2630281803
 C       -10.9051995650       -2.5339359653       -5.8596545870
 O       -11.2895883636       -1.6234637719       -5.0966364401
 C        -9.5185676897       -2.6279333906       -6.4975214474
 C        -8.7310756283       -1.2806513737       -6.7370661418
 C        -9.4461238575       -0.2931244960       -7.6916046171
 O       -10.5134351346       -0.6181488225       -8.2231383803
 C        -8.6988218383        1.1241256149       -7.8303910339
 C        -7.1180284740        0.8908572834       -7.6829692441
 O        -6.6187548921        0.6290029185       -6.5821637305
 C        -6.1240893057        1.1970279984       -8.8152234139
 C        -4.7884481463        0.7128302860       -8.6604871692
 C        -4.7570759370       -0.8692307411       -8.5063385696
 O        -5.7586164720       -1.4765473055       -8.3613802572
 C        -3.3431686479       -1.5225401880       -8.2759201144
 C        -2.1782556727       -0.8522075250       -9.1381112042
 O        -1.0855141595       -0.6617268817       -8.7126210444
 C        -2.4370077665       -0.9826627676      -10.7219660416
 C        -1.1537718122       -0.5121147506      -11.4073395472
 C        -1.1171307170       -0.7085147875      -12.9535159732
 O        -0.6806776569       -1.6656657909      -13.4662941746
 C        -1.4660269662        0.5445003846      -13.9202623706
 C        -0.3411044222        1.6986839557      -13.7092511987
 O        -0.6393376633        2.5604341486      -12.9885772923
 C         0.9278440161        1.7179973875      -14.5903543361
 C         1.8629170711        0.5271935909      -14.4846919758
 C         2.7056062015        0.4646397418      -15.7937499113
 O         3.0977540010        1.5129801072      -16.2921633472
 C         3.3504223226       -0.9590334525      -16.4138148299
 C         4.8895173503       -0.5991980539      -16.8795094205
 O         5.2341376745       -0.8070926128      -18.0110293121
 C         5.8661743094       -0.2902224630      -15.7186663599
 C         6.9655755569        0.6989375283      -16.3760919925
 C         7.9303771568       -0.1095074253      -17.2838140410
 O         8.2691941416       -1.2153329836      -16.8669329974
 C         8.4828699649        0.6051165773      -18.6111427868
 C         9.5832290256       -0.3450584051      -19.1987114528
 O         9.2208915978       -1.4799471929      -19.4713037362
 C        11.0744689689        0.1152857026      -19.4646923398
 C        11.8905795765       -1.0876437780      -20.1536624965
 C        11.7118931565       -2.3661404484      -19.1575035394
 O        11.2953050485       -2.1968557360      -18.0155283929
 C        12.2448278666       -3.8754560833      -19.5696805165
 C        11.1013102279       -4.6660705615      -20.1561804970
 O        10.9181715133       -5.7841557505      -19.6486840050
 C        10.1976390949       -4.0256717464      -21.1581558781
 C         8.7755388526       -4.7557817682      -21.4176422023
 C         8.1411491658       -5.1829439109      -20.1142497116
 O         7.8673044302       -4.5108206967      -19.1507099014
 C         7.3929630537       -6.7251093550      -20.1184074200
 C         7.3350436040       -7.2856926599      -18.6206785414
 O         6.3291248782       -7.3647347884      -17.9160255218
 C         8.7126316032       -7.6435481814      -17.9462228742
 C         8.6515463061       -7.3902840324      -16.4654219614
 C         9.3045976611       -6.0511339522      -15.9702528303
 O        10.0095417448       -5.3772266524      -16.6757231413
 C         8.7927605476       -5.5750747664      -14.6931076351
 C         7.4669536234       -4.9358244083      -15.1070395286
 O         7.4722528635       -4.1781006583      -16.0635771987
 C         6.1295218373       -5.2467436919      -14.3687771471
 C         8.6449444439       -6.7543929564      -13.6556208097
 C         9.8569812965       -4.6081033292      -14.0052841189
 C         5.9305547319       -6.6732474637      -20.6671959814
 C         8.2225342390       -7.6983319789      -21.0074340512
 C        13.4197412436       -3.6559619669      -20.5810790686
 C        12.7974125071       -4.4577678498      -18.2118187909
 C         7.3653428013        0.6804763121      -19.6577606407
 C         9.0484110670        1.9618379866      -18.2448600991
 C         3.5234160510       -2.0271531554      -15.2706605704
 C         2.5197246853       -1.4048197504      -17.6657963141
 C        -1.3647289800        0.1421588783      -15.4102588364
 C        -2.7934380854        1.1915379361      -13.5778061379
 C        -3.0081727001       -1.1957249496       -6.7621115652
 C        -3.5310376854       -3.0367096627       -8.4558981912
 C        -9.0750580587        1.9952031318       -9.1666090084
 C        -9.2390102742        1.9394052025       -6.5368911883
 C       -11.5635342984       -4.7973456393       -7.1324988005
 C       -13.1122852696       -2.8746234774       -6.9634076057
 C       -17.5706437478       -2.1945737844       -3.5825349025
 C       -15.8265311176       -0.5469968286       -3.0763121536
 C       -19.5414775913       -2.4254450614        3.3804252658
 C       -21.4946499780       -1.2501428604        2.2787057228
 C       -17.0079426308        4.0391400115        4.6289221705
 C       -16.8529137322        5.1456087839        2.3485044932
 H       -14.1650896777        2.5760129484        4.3218059469
 H       -14.2172885932        4.1577943060        3.8394198897
 H       -13.4872480241        3.0811907818        2.7076356588
 H       -20.0182571664        3.3789218383        3.3750221932
 H       -19.1829680767        2.4039839771        4.4731538012
 H       -20.3425803977        1.6854595340        1.9167482875
 H       -20.9829391742        1.3507776264        3.6178226144
 H       -19.0697676292       -3.5926462050        0.8028334286
 H       -17.6970265261       -2.5586724180        1.2774839279
 H       -18.9331834228       -2.6146129818       -1.6001825477
 H       -17.6969026265       -3.6669237112       -1.1568471723
 H       -13.4595292707       -2.9693297347       -2.5274423850
 H       -14.0285650785       -1.9599948885       -3.8485448586
 H       -14.4250324694       -4.0969300025       -5.2356222239
 H       -14.0783417902       -4.9740528343       -3.8136745359
 H        -9.6094141522       -3.1999189263       -7.4194421954
 H        -8.8364714477       -3.1065334837       -5.7569418435
 H        -7.6682106645       -1.5132609586       -7.0275411201
 H        -8.6466483101       -0.7527204377       -5.7140735270
 H        -6.0656479457        2.2531941226       -8.8767028718
 H        -6.4887320408        0.8003178351       -9.7716993749
 H        -4.4134753802        0.9884818724       -7.6556770332
 H        -3.9256406713        1.0059787294       -9.3149576324
 H        -3.3308585125       -0.4067866499      -10.9627852991
 H        -2.5670792136       -2.0306734969      -10.8634323767
 H        -0.2785566482       -0.9100792964      -10.9653234934
 H        -1.0598987376        0.5728153959      -11.2852118204
 H         1.4452093200        2.6553274793      -14.2493300379
 H         0.5490033637        1.8936106629      -15.6321510127
 H         1.3879120060       -0.4344047145      -14.3365616021
 H         2.4306963618        0.6552928459      -13.5707503619
 H         6.4220153834       -1.2200550618      -15.5595011142
 H         5.3786360325       -0.0165182569      -14.8025923689
 H         7.5341387356        1.1992041010      -15.6658755838
 H         6.4701050659        1.4612752953      -16.9584939133
 H        11.6523246969        0.4094293385      -18.5734179881
 H        11.0081563746        0.9134302090      -20.2910795394
 H        12.9043466898       -0.9121759803      -20.4206510361
 H        11.4533226870       -1.2835251798      -21.1647583673
 H        10.7201563060       -3.9888641001      -22.1002181790
 H         9.9482596653       -3.0160625098      -20.9647483731
 H         9.1088230216       -5.5237466451      -22.1023043043
 H         8.0230522691       -4.1210941009      -21.8315010096
 H         9.5969945296       -7.4446926378      -18.5274719232
 H         8.7761210116       -8.7148498205      -17.9918021140
 H         9.1032295502       -8.2539039558      -15.9147157409
 H         7.5868701640       -7.4346863696      -16.2051168223
 H         6.0372876095       -6.2701507432      -14.3177432896
 H         5.2773162252       -5.0164278967      -14.9696631723
 H         6.0765675607       -4.7111688770      -13.4488392073
 H         7.7077353392       -7.3242796668      -13.8738040068
 H         8.4957462697       -6.3784357521      -12.6125570171
 H         9.5199824458       -7.3279091557      -13.7372086313
 H        10.1566622461       -3.8628144111      -14.7452897398
 H        10.8293174992       -5.0952234807      -13.8780064436
 H         9.4992084161       -4.1552677255      -13.0788324939
 H         5.6205757116       -7.6419225199      -21.0984385169
 H         5.8914166452       -5.9666372287      -21.5506467489
 H         5.2912401056       -6.3629449771      -19.8761513264
 H         7.7832790950       -8.6253292820      -20.9019723637
 H         9.2500349996       -7.7888600557      -20.7083809395
 H         8.2934110716       -7.5053615821      -22.0658938154
 H        13.1518960480       -4.0053159965      -21.6223713089
 H        14.3399978963       -4.1834276803      -20.4031743894
 H        13.6255194002       -2.5951675881      -20.8597203629
 H        13.4491207780       -5.3467431244      -18.3989960451
 H        12.0553088303       -4.5231002466      -17.4566804026
 H        13.5185367076       -3.7124176693      -17.8777722519
 H         6.4316034307        0.8306239969      -19.1808727363
 H         7.2604579455       -0.2652087412      -20.1059502319
 H         7.4997444401        1.4251350460      -20.4265687375
 H         9.0642102893        2.6635386180      -19.0730359302
 H        10.0711664988        1.9456902509      -17.7906235758
 H         8.4687405653        2.6398489548      -17.6058333622
 H         2.5700594465       -2.2407257521      -14.7097312271
 H         4.1950533662       -1.7458434359      -14.4502848459
 H         3.9109711471       -3.0649512914      -15.5710836735
 H         2.7612332730       -0.7680482461      -18.5073663011
 H         1.3684930504       -1.2202437047      -17.6079486460
 H         2.6980767844       -2.3728969708      -18.0559479038
 H        -1.9888910244       -0.6891360742      -15.6074478110
 H        -0.3244194969       -0.0718649467      -15.7552022490
 H        -1.7248496199        0.8810525903      -16.1181492678
 H        -2.9839986279        1.0034909641      -12.5477676399
 H        -3.5743138514        0.9067422074      -14.2827010200
 H        -2.6513636481        2.2647238841      -13.6514202649
 H        -3.7890907668       -1.5581328865       -6.1040625713
 H        -2.6951787318       -0.1204065825       -6.5866503755
 H        -2.0413674954       -1.7722361304       -6.4893014882
 H        -4.3220846178       -3.4925177843       -7.9391185468
 H        -2.7732971934       -3.4582713625       -7.8536961477
 H        -3.3855933791       -3.4015910451       -9.4772316236
 H        -8.1963182046        2.6597851408       -9.1206657888
 H        -9.9927768206        2.4080745619       -8.8400635833
 H        -9.0005620460        1.4824192203      -10.1126332219
 H        -8.5836159027        1.7321468862       -5.6767916767
 H       -10.2114216614        1.5770799474       -6.2045939297
 H        -9.1803865854        3.0873909280       -6.7117141436
 H       -11.1721926871       -5.6133924039       -6.4688774429
 H       -10.7597038653       -4.5867435762       -7.9034358712
 H       -12.4355772425       -5.1472040073       -7.6591703822
 H       -14.0489327721       -3.4890927685       -6.8649941070
 H       -12.7758682998       -2.7283286945       -7.9465634798
 H       -13.2611611969       -1.8455292506       -6.5888127340
 H       -18.4068212746       -1.5054549540       -3.3903683497
 H       -17.9271215948       -3.1670000704       -3.4308215349
 H       -17.3629624656       -2.0362409365       -4.6125856301
 H       -16.4890718680        0.2559008420       -2.9786151375
 H       -15.5626889286       -0.6741130326       -4.1453302970
 H       -14.9094403961       -0.3951982194       -2.4412184731
 H       -20.0685516681       -2.1193328920        4.2317232916
 H       -18.4093002493       -2.4139898871        3.5591998416
 H       -19.8609325146       -3.4006823667        2.9656019706
 H       -22.0659259192       -1.3422531279        3.2924412670
 H       -21.8042652700       -1.9367022605        1.5126419368
 H       -21.8185387484       -0.2125679959        1.8377904240
 H       -17.0867195698        3.1053726139        5.2702274236
 H       -17.9508763907        4.5390744861        4.9217186248
 H       -16.2708219900        4.7804375085        4.8910460182
 H       -16.0708566268        5.7581325781        2.8579878660
 H       -17.8160821649        5.6260801439        2.2557708685
 H       -16.5539307007        4.9193735449        1.3520704687
 Na      -17.2494893247        0.8679000960        0.7282760081
 Na        9.2512225393       -3.3619643446      -17.5787989319
