232

 C       -14.2933093244        3.3042338715        3.4233315989
 C       -15.5432903151        2.8282865704        2.7183569161
 O       -15.5555425015        1.9348539388        1.9329981895
 C       -16.9231332669        3.6466233515        3.0136506116
 C       -18.1973165599        3.0222297695        2.4387660609
 O       -18.3701102112        2.9034802522        1.2573195415
 C       -19.2190558982        2.5577663389        3.3710688442
 C       -20.1916078842        1.3875384237        2.8257334563
 C       -19.4207215429        0.1242123667        2.7894648863
 O       -18.2165728607        0.1707776003        3.0066961081
 C       -20.0738007983       -1.2276212906        2.4231093808
 C       -19.4634133219       -1.5717343851        0.9371869693
 O       -19.6897696289       -0.7230780868        0.1108908905
 C       -18.4808665244       -2.6621401683        0.6972826364
 C       -18.0936427377       -2.7729709754       -0.7765862916
 C       -17.1652732137       -1.6584407765       -1.2899471202
 O       -16.6946941754       -0.8639428018       -0.4995312632
 C       -16.6781355051       -1.7028817274       -2.7446842386
 C       -15.6847980139       -2.9437399379       -2.7864066954
 O       -16.0205975601       -3.9308202160       -2.1979770092
 C       -14.1192937864       -2.9589333090       -3.2075624244
 C       -13.9329712273       -4.1570423986       -4.2423449890
 C       -12.4957613620       -4.1786840670       -4.7177741150
 O       -11.6441500385       -4.7889908246       -4.0481044279
 C       -12.0164937787       -3.6067449100       -6.0997766955
 C       -10.9302588216       -2.4895406303       -5.9677906235
 O       -11.1236539453       -1.6203815825       -5.1292526587
 C        -9.5624801404       -2.6008689133       -6.6678269561
 C        -8.7772854842       -1.2752194185       -6.4238120441
 C        -9.2156866730       -0.2122435814       -7.4838205299
 O       -10.1657263657       -0.4813100956       -8.1731124303
 C        -8.5275717475        1.1499111541       -7.6514273899
 C        -6.9860215993        0.8164626989       -7.7047069283
 O        -6.4610064795        0.4158732395       -6.6971047141
 C        -6.1518586084        1.1727103034       -8.9056572879
 C        -4.6850436574        0.7879715229       -8.5869322979
 C        -4.5721849029       -0.7918877174       -8.5475236799
 O        -5.6062959510       -1.4486051510       -8.5963963057
 C        -3.2430656307       -1.5615772381       -8.2294725979
 C        -1.9903608738       -1.1002227116       -9.2187474733
 O        -0.9303810152       -0.7256177863       -8.7398754354
 C        -2.1499316397       -1.2546633381      -10.8204113879
 C        -0.9913745099       -0.6422481317      -11.5467962864
 C        -1.1775359220       -0.6821457799      -13.1271346017
 O        -0.8104321773       -1.6868372779      -13.7782895607
 C        -1.6274856285        0.5737544452      -14.0082234129
 C        -0.5037452574        1.6503472056      -13.8822171453
 O        -0.4950792855        2.4600382110      -12.9390191991
 C         0.7432259684        1.7484797191      -14.8140972721
 C         1.6952594159        0.5299331764      -14.8207331744
 C         2.8515211905        0.5493803774      -15.8733521104
 O         3.4432762835        1.5111119644      -16.2244292599
 C         3.3129581319       -0.9945173063      -16.4240158578
 C         4.8115037371       -0.6716754430      -16.9230830567
 O         5.2088021078       -0.9035971131      -18.0545139755
 C         5.9350692937       -0.1313054042      -15.9142583014
 C         6.9061003784        0.7950057871      -16.5081845719
 C         7.9408304703        0.0183503944      -17.2719808525
 O         8.3877904176       -1.0012108165      -16.8168148609
 C         8.5626018740        0.7343912345      -18.6223707738
 C         9.6461023951       -0.3760545362      -19.1833782397
 O         9.1940315723       -1.4909148784      -19.4772686677
 C        11.0719659277        0.1361451847      -19.5011242431
 C        11.9837660113       -1.0100182770      -19.9594646213
 C        11.8062463471       -2.3778147029      -19.1419259990
 O        11.2896324883       -2.2732665467      -18.0454730503
 C        12.3083739307       -3.8125803731      -19.6944862325
 C        11.0841361276       -4.7210836837      -20.1064017259
 O        11.0488859037       -5.8728303483      -19.7919205608
 C        10.0042340884       -4.1016638613      -21.1853413404
 C         8.7424889450       -4.8913057026      -21.4212843974
 C         8.0057579825       -5.3310607459      -20.1442169284
 O         7.9383152844       -4.5522784885      -19.2083651832
 C         7.3543637950       -6.7403832376      -19.9998527352
 C         7.4822413514       -7.1371264407      -18.4373286785
 O         6.5058841079       -7.2381298388      -17.7531834673
 C         8.7908231861       -7.6885133228      -17.8792347304
 C         8.8572304355       -7.5961214530      -16.3484971641
 C         9.2042852588       -6.2414127338      -15.9310659293
 O         9.8205397771       -5.5301627403      -16.7340902642
 C         8.6956263686       -5.6218336553      -14.5917653007
 C         7.3982078576       -4.9473925235      -15.0696952366
 O         7.4899293175       -4.1067925637      -15.9472080576
 C         6.0714872901       -5.2957524742      -14.3780559739
 C         8.4998957025       -6.6822960626      -13.4285555262
 C         9.5778926784       -4.5569591392      -13.9541090789
 C         5.8138651308       -6.7800339390      -20.2667240954
 C         8.1604020108       -7.7460156493      -20.8041008745
 C        13.3850748874       -3.6767072117      -20.7604789115
 C        12.9307144283       -4.3831740674      -18.2770145315
 C         7.3475155695        0.6890749789      -19.5889060157
 C         9.1175880622        2.1335239105      -18.4427567157
 C         3.0628601373       -2.1681256454      -15.4608170385
 C         2.4966206109       -1.2317518918      -17.6832876909
 C        -1.7587151418        0.1051208569      -15.4826852386
 C        -3.0780919613        1.0859968373      -13.5659634980
 C        -2.8134738364       -1.2822364425       -6.6615149420
 C        -3.4007032024       -3.1465514148       -8.3976245764
 C        -9.1985754926        1.6956440305       -9.0647943458
 C        -8.8513351269        2.0434055229       -6.5145137214
 C       -11.4175848728       -4.8207779781       -6.9674806296
 C       -13.2358585095       -2.9032713807       -6.9331676441
 C       -17.7350359661       -1.8706272364       -3.7595716989
 C       -15.8826476211       -0.3667216407       -3.0373314121
 C       -19.5173757773       -2.2803980841        3.4959456875
 C       -21.5624490315       -1.2052415684        2.4908919749
 C       -16.9691514862        3.9339506114        4.5769767128
 C       -16.6816503495        5.0100062120        2.2104364063
 H       -14.3517042234        2.9532804570        4.4405505551
 H       -14.1025662062        4.3772537984        3.5595980074
 H       -13.3922313064        2.9395508993        2.9231105997
 H       -19.8210720019        3.3885323084        3.7498434001
 H       -18.7350254883        2.0236784189        4.2461298652
 H       -20.5950030172        1.6370401151        1.8255967273
 H       -20.9327705017        1.2071628599        3.5835625060
 H       -18.8699436461       -3.6634562817        0.9674312376
 H       -17.5666774265       -2.4041217808        1.2917060781
 H       -18.9759572074       -2.9589200869       -1.3491377268
 H       -17.6167169936       -3.7722543980       -0.8828869073
 H       -13.6419354716       -3.0583107129       -2.2222893810
 H       -13.7652168815       -2.0057133498       -3.6336657231
 H       -14.6596659776       -4.2115589367       -5.0005371566
 H       -13.9584911973       -5.1679210703       -3.7557867728
 H        -9.6048204045       -2.8410918849       -7.7529547210
 H        -9.0300171623       -3.3922755540       -6.1388768694
 H        -7.7224452154       -1.4575683332       -6.4834198191
 H        -8.9365136263       -0.9037090148       -5.4601825273
 H        -6.3417925280        2.3094645682       -8.9650533136
 H        -6.4395732738        0.7068861984       -9.8544573970
 H        -4.3281953543        1.1818696078       -7.6699080968
 H        -3.8856269686        0.9297120395       -9.2811242211
 H        -3.1077541870       -0.7551826603      -10.9749929598
 H        -2.1870148996       -2.3617900638      -10.9937514689
 H         0.0025343275       -1.2032359938      -11.3319096928
 H        -0.8489760426        0.3981530831      -11.2107793342
 H         1.2487980919        2.6798993711      -14.6019319360
 H         0.2834122792        1.8529525471      -15.7415168345
 H         1.1333030453       -0.4215259451      -14.8310111551
 H         2.2326093373        0.5758509937      -13.8443901445
 H         6.3999287907       -1.0372770859      -15.4866529647
 H         5.4518388605        0.4282479871      -15.0788809382
 H         7.3871088530        1.5277549214      -15.7460466190
 H         6.3055686635        1.4231810773      -17.2116043078
 H        11.5661512255        0.5922873923      -18.6206150420
 H        11.0263359691        0.8421496240      -20.2959813402
 H        13.0482572772       -0.6873077686      -20.1522469236
 H        11.7358278889       -1.2445930951      -20.9901863072
 H        10.5557228644       -3.9539460461      -22.1503361899
 H         9.4617840564       -3.1377050512      -20.9909922128
 H         9.1515518561       -5.7735141520      -21.9177044435
 H         8.0136333290       -4.3078196631      -22.0803026109
 H         9.6318802859       -7.1662339631      -18.3362952689
 H         9.0278337855       -8.6907838575      -18.2945724227
 H         9.6272326171       -8.1795126118      -15.8035893829
 H         7.8827995300       -7.8515672828      -15.8252218626
 H         5.4724721897       -6.1886455605      -14.7773717272
 H         5.4165595114       -4.4686453360      -14.5159249090
 H         6.2683895011       -5.2888141958      -13.2753985592
 H         7.8485418155       -7.4226234657      -13.8485571176
 H         7.9585348768       -6.2274438908      -12.6463890610
 H         9.4695761394       -7.1803804174      -13.0913062907
 H         9.6898136154       -3.7144274531      -14.6672551091
 H        10.6397952635       -4.7884759872      -13.8200163087
 H         9.0241367096       -4.1939575987      -13.0459806135
 H         5.4167082892       -7.7027239242      -19.8752102990
 H         5.5918671425       -6.7632020185      -21.3062670645
 H         5.3780793729       -5.9551120361      -19.6739070465
 H         8.1448234713       -8.8425050231      -20.4450460785
 H         9.1991837674       -7.3962268337      -21.0513267479
 H         7.7477446148       -7.8257420085      -21.8491277425
 H        13.1658629609       -2.9419209495      -21.4834335290
 H        13.5870554951       -4.5815007338      -21.2826877974
 H        14.3139858990       -3.3725075606      -20.3502713628
 H        13.5473023454       -5.2112017394      -18.5008762056
 H        12.1006752203       -4.6266306690      -17.5074206122
 H        13.6603049799       -3.6281477099      -17.8684549764
 H         6.5671805508        1.4315645661      -19.1657196538
 H         6.7742788815       -0.2836475684      -19.6364798232
 H         7.6765335030        1.0502833778      -20.5528810640
 H         9.3125322806        2.7239757833      -19.2862974278
 H         9.9475937857        2.1888718021      -17.8088584119
 H         8.3313948655        2.7944330470      -18.0941273166
 H         1.9852576829       -2.3240159819      -15.3458091183
 H         3.4140874850       -2.1195900600      -14.4071895412
 H         3.4682788827       -3.0843941453      -15.8538364895
 H         1.6334046610       -0.5587602956      -17.8966063632
 H         2.1239849744       -2.2019511177      -17.6946403460
 H         3.0919563481       -1.1887522717      -18.6426728639
 H        -2.7041754754       -0.4722539995      -15.7606135731
 H        -0.9006544450       -0.5307134630      -15.7334932039
 H        -1.6919327553        0.9321516068      -16.2381410503
 H        -3.0839897559        0.8656317747      -12.4839734062
 H        -3.8271151539        0.5588114928      -14.1723862517
 H        -3.2746715468        2.1736219064      -13.7580230883
 H        -2.9429088440       -2.1662328974       -6.0153099072
 H        -3.2954824467       -0.4572490834       -6.1909484400
 H        -1.7830170697       -1.0478850398       -6.7220278626
 H        -4.3086530094       -3.6191418688       -7.8878352251
 H        -2.6399017414       -3.7926630754       -7.8622387527
 H        -3.4367080139       -3.3210237524       -9.4968685269
 H        -8.9145830659        2.6974498663       -9.2160709625
 H       -10.2620885693        1.4837638248       -8.8752103512
 H        -8.6577184162        1.0780648987       -9.7766882996
 H        -8.7332304284        1.4152442341       -5.5903647570
 H        -9.9313194482        2.3323385976       -6.5003629410
 H        -8.1691337342        2.8409364208       -6.4571189656
 H       -10.6327749935       -5.4198921955       -6.4915110689
 H       -11.1285348776       -4.4460971348       -7.9386886875
 H       -12.3029614953       -5.5145905671       -7.1387434899
 H       -13.7853676116       -3.6530708933       -7.4059365949
 H       -12.8391408028       -2.1347191022       -7.6479170875
 H       -13.8571407155       -2.3966470899       -6.2271208072
 H       -18.5170311353       -1.1824011545       -3.7281678813
 H       -18.2698443734       -2.8718369615       -3.6081011500
 H       -17.2004080907       -1.7690122892       -4.7038765350
 H       -16.6910909768        0.3844687358       -2.8019640170
 H       -15.6565619139       -0.2982186883       -4.0930088962
 H       -15.0045692995       -0.2135723591       -2.4486322567
 H       -19.8610297816       -1.9648252649        4.5251562860
 H       -18.4711318724       -2.2460815733        3.4771263917
 H       -19.9019593977       -3.2403567653        3.1537395042
 H       -21.8248237390       -0.8285468381        3.4082427428
 H       -22.0125580721       -2.1961557889        2.2935394782
 H       -21.9809489504       -0.5655516040        1.7940537619
 H       -17.3736406641        3.1049848792        5.0538096457
 H       -17.6212364588        4.7637584373        4.9417011865
 H       -16.0065407187        4.2508085038        4.9870847099
 H       -15.6853389104        5.3568162981        2.4060447289
 H       -17.4773271763        5.7521618680        2.5051768456
 H       -16.8537216127        4.8332198605        1.0968090916
 Na      -17.1858826711        0.9818259600        0.6139193674
 Na        9.0888752620       -3.1118458280      -17.4255161794
