232

 C       -14.2572293262        3.2041707468        3.4180135989
 C       -15.5345703347        2.7939589482        2.6757390137
 O       -15.5915522571        1.6722551988        2.0886712259
 C       -16.8601055608        3.7346768385        2.9973699030
 C       -18.1966593634        3.0677816849        2.4202837601
 O       -18.3813600205        2.9724460563        1.1650528050
 C       -19.3436823706        2.6530296610        3.3135971162
 C       -20.1236298447        1.4382486901        2.7911469735
 C       -19.2767612024        0.1716537422        2.7708192047
 O       -18.0569531842        0.2254523258        2.8186742776
 C       -19.9966094692       -1.1638867309        2.5109452162
 C       -19.4823149837       -1.3899211744        1.0672010388
 O       -19.8244827933       -0.6121599764        0.2123650799
 C       -18.5347517886       -2.5846451573        0.7424803139
 C       -18.1953609926       -2.6928894952       -0.7599461033
 C       -17.2570114999       -1.6546357104       -1.2562834633
 O       -16.8098614920       -0.7885399567       -0.4926529484
 C       -16.6443811309       -1.6765709248       -2.6420774698
 C       -15.6780061922       -2.9794470504       -2.8372338802
 O       -16.1272433103       -4.0555721940       -2.4932935773
 C       -14.3286119469       -2.8313423921       -3.5009651692
 C       -13.9759322381       -4.0557107292       -4.1886190248
 C       -12.4473901167       -4.1876403596       -4.6384019450
 O       -11.6321618139       -4.5901015762       -3.8831801558
 C       -12.0181060159       -3.6904702984       -6.0654306789
 C       -10.9963478124       -2.4924392262       -5.7078455904
 O       -11.2563440292       -1.5449497704       -5.0363376081
 C        -9.6404392863       -2.6309645754       -6.3839538401
 C        -8.8377247948       -1.3664341624       -6.3588520796
 C        -9.2137420904       -0.2970487101       -7.4251181849
 O       -10.0974381199       -0.5689289331       -8.2068711394
 C        -8.3393531032        1.0494374574       -7.6387941241
 C        -6.8365979965        0.7697953684       -7.5753602903
 O        -6.2923349946        0.4162042500       -6.5622866853
 C        -5.9389309521        1.1405972529       -8.8136007717
 C        -4.4544096383        0.6805837175       -8.8376227819
 C        -4.3633423668       -0.9088126768       -8.7060690349
 O        -5.2998464250       -1.6191030219       -9.0695168213
 C        -3.0841881009       -1.5718721198       -8.3281971741
 C        -1.8341823762       -1.2414624579       -9.3266315051
 O        -0.8405464959       -0.6711722678       -8.9374506207
 C        -2.1109628724       -1.4470672164      -10.9155804367
 C        -1.1677817599       -0.5091932027      -11.7402943441
 C        -1.1863701932       -0.8259557270      -13.2676932137
 O        -0.9037267982       -1.8972958185      -13.6973679902
 C        -1.5959495627        0.5090726319      -14.1366280887
 C        -0.5061338565        1.4890238308      -13.9699417781
 O        -0.3580474337        2.1477014269      -12.9292622368
 C         0.4944926881        1.5704309710      -15.1413008579
 C         1.3930270898        0.3197219647      -15.1416747177
 C         2.6713244497        0.5081671125      -15.9308582135
 O         3.3319754412        1.5455679545      -15.9665142177
 C         3.2592396467       -0.7862239691      -16.5754868300
 C         4.7869587254       -0.5576803010      -16.9676928917
 O         5.1990632405       -1.0962677221      -17.9894738128
 C         5.6698823005       -0.0524204607      -15.7814908354
 C         6.7405978190        0.8874801540      -16.5285964916
 C         7.9363104398        0.1243261394      -17.2652285542
 O         8.5257204941       -0.7795719834      -16.6852608993
 C         8.5126178817        0.6920394034      -18.7162818821
 C         9.5082701648       -0.4115278633      -19.3049261083
 O         9.1439522180       -1.4910680420      -19.6977248067
 C        11.0023273109        0.0341510212      -19.3333451954
 C        11.8271928348       -1.1480989130      -19.8571981026
 C        11.7275627704       -2.3814199501      -18.9777514499
 O        11.2043641345       -2.3396350959      -17.8821085794
 C        12.2584177433       -3.8109500661      -19.6404908056
 C        10.9766760154       -4.6382745834      -20.1460164178
 O        11.0216710623       -5.8633887896      -19.9561523489
 C         9.9426585320       -3.9149416029      -20.9239448769
 C         8.9005252640       -5.1476915518      -21.1601466319
 C         8.2315268152       -5.4983596888      -19.8610987646
 O         8.0345055816       -4.5956609562      -19.0610074006
 C         7.4688038989       -6.8342274400      -19.7538732282
 C         7.5970833779       -7.2835344788      -18.2585810822
 O         6.7737640512       -6.9346637633      -17.4149646173
 C         8.9682456094       -7.7942103106      -17.8444682109
 C         9.2751596684       -7.6765860167      -16.3640336069
 C         9.2031072027       -6.1286261561      -15.8738678070
 O         9.8130124888       -5.4240358625      -16.6340716599
 C         8.5951668269       -5.6032488527      -14.5234992775
 C         7.1485654163       -4.8299518048      -14.9863659449
 O         7.2049856626       -3.8344527564      -15.6478571880
 C         5.8200445832       -5.2711570276      -14.4387165652
 C         8.3235662007       -6.7038839129      -13.4706532400
 C         9.5706573029       -4.4704395841      -14.1515127069
 C         6.0164184765       -6.5187409502      -20.2252787847
 C         7.9248220521       -8.0497165196      -20.6512792014
 C        13.2072214437       -3.6084288087      -21.0109398717
 C        13.0171087083       -4.6718937254      -18.6370699945
 C         7.3352495418        0.7440390275      -19.8204388158
 C         9.2029493217        2.1017361105      -18.4171505158
 C         3.1521681490       -1.9352371051      -15.5478021265
 C         2.2738374956       -0.9325227431      -17.7448446323
 C        -2.1305644025        0.1817052778      -15.5838887273
 C        -2.8174111782        1.1706104928      -13.3249615822
 C        -2.5845525830       -1.1918688863       -6.9084481787
 C        -3.3084309349       -3.1179489837       -8.5253877203
 C        -8.7346778927        1.8340020035       -8.9619005695
 C        -8.5550024404        2.0957921937       -6.4459969178
 C       -11.5409821058       -4.9304099858       -6.8510967072
 C       -13.1244041769       -2.9642827398       -6.8074539407
 C       -17.6800300205       -1.8852097289       -3.7762537205
 C       -15.9675775788       -0.2968764349       -2.8935007075
 C       -19.5196877108       -2.2379020786        3.4893786838
 C       -21.5122597881       -1.2181030514        2.4037642856
 C       -16.9376787972        4.0708558969        4.4313935251
 C       -16.6159569197        4.9711730603        2.1862823312
 H       -14.3676779184        3.2266043152        4.5182943230
 H       -13.9455572887        4.2134266835        3.1341106775
 H       -13.3565067228        2.6564206959        3.1187461374
 H       -20.1189604079        3.4644009980        3.4078753744
 H       -19.0006253781        2.3974448947        4.2993058810
 H       -20.3878008361        1.6623421713        1.7511507473
 H       -21.0269772601        1.3032280699        3.4577014027
 H       -19.0645512594       -3.4922459979        1.0439557048
 H       -17.5805717949       -2.5327277063        1.2583042806
 H       -19.1829762447       -2.7169212079       -1.2888356480
 H       -17.7859847007       -3.6568934835       -1.0434319893
 H       -13.7321278231       -2.5642629428       -2.6012786065
 H       -14.3046501714       -1.8981560421       -4.1054067959
 H       -14.6086567812       -4.1222801144       -5.1307563661
 H       -14.2661818457       -4.9019026166       -3.6231998661
 H        -9.7215832201       -2.9598979357       -7.4018078099
 H        -9.1254296795       -3.4390562548       -5.8336272551
 H        -7.7469828792       -1.5106980086       -6.4240966669
 H        -8.9707093267       -0.8778592730       -5.3402992997
 H        -5.8915914443        2.1564845984       -9.0591372940
 H        -6.3792100072        0.6612361236       -9.6975809544
 H        -3.7926659194        1.0549407461       -7.9783293327
 H        -3.9976216045        1.1389234522       -9.7778318490
 H        -3.2122067714       -1.3191434919      -11.0156608789
 H        -1.8936176885       -2.4796317225      -11.0854325673
 H        -0.1668326237       -0.6290314065      -11.4948050496
 H        -1.5442298811        0.5062002167      -11.5327202676
 H         1.0847585614        2.4794131107      -14.9259073815
 H        -0.0003764008        1.7130814453      -16.2057869253
 H         0.8266276589       -0.5131232348      -15.6123565596
 H         1.7277212579        0.0740580945      -14.1153032874
 H         6.1890599833       -0.9413309875      -15.3956873964
 H         5.1543511805        0.4267288917      -14.9690333895
 H         7.3086747778        1.3025505831      -15.7405339937
 H         6.3410477422        1.7158727354      -17.1062297308
 H        11.4218843400        0.4522200028      -18.4209588181
 H        11.1440488207        0.8862664010      -20.0685656986
 H        12.8369006934       -0.9664661842      -20.0859616130
 H        11.5071618545       -1.3855426518      -20.8856457403
 H        10.3712066272       -3.6068125832      -21.8716455200
 H         9.4236977021       -3.0994803370      -20.5384686962
 H         9.4851661143       -5.9394340222      -21.6176620958
 H         8.0839141893       -4.8381990819      -21.7495584007
 H         9.7979340963       -7.3596970629      -18.4405905812
 H         9.1583251694       -8.8290813860      -18.1516941784
 H        10.3225615656       -7.8444563603      -16.2113283562
 H         8.8108660148       -8.3668161784      -15.7469255119
 H         5.4625542827       -5.9086845480      -15.2301293140
 H         5.0276569627       -4.4298009338      -14.2830864890
 H         5.9226275769       -5.7976444072      -13.5043964975
 H         7.6659048250       -7.5382700416      -13.7804099541
 H         8.0199078544       -6.1380378476      -12.5576426643
 H         9.2452727683       -7.1453938865      -13.2882396914
 H         9.8760256402       -3.8952335631      -15.0086244426
 H        10.5166935968       -4.9150473479      -13.8915918004
 H         9.1534083031       -3.8445467642      -13.4280993500
 H         5.2768414790       -7.1816908938      -19.7431120463
 H         6.0894511260       -6.7760107450      -21.2852297666
 H         5.6977227805       -5.5078360008      -20.0590089826
 H         7.1725868803       -8.7761086869      -20.6517454153
 H         8.8196003682       -8.5132145149      -20.3491192236
 H         8.0730669632       -7.8332267116      -21.6755761099
 H        13.4751836308       -2.5492738427      -21.2473941223
 H        12.8571476258       -4.0923338114      -21.9765094302
 H        14.1821062300       -4.1489069500      -20.8817654440
 H        12.9915934698       -5.7574035207      -18.9579614587
 H        12.5161712176       -4.6491686100      -17.7411810852
 H        14.0003220096       -4.3378757761      -18.5244458093
 H         6.9154819882        1.6937464918      -19.8250070306
 H         6.5212464110        0.1038237121      -19.5691475125
 H         7.7836807744        0.5206100659      -20.8499211718
 H         9.7762045847        2.5415873780      -19.3201792625
 H         9.9821546563        2.1452538257      -17.6315829483
 H         8.5061248639        2.9101055682      -18.3095246334
 H         2.1570532288       -2.2752449353      -15.3086622662
 H         3.5656007858       -1.6849591425      -14.5867584517
 H         3.7659523189       -2.7654955376      -15.9411182956
 H         1.3184769875       -1.2958295525      -17.4327861212
 H         2.7251301254       -1.5242751273      -18.6233530621
 H         1.9534515136       -0.0095766460      -18.1725045254
 H        -2.7973601362       -0.6265582122      -15.5606060871
 H        -1.3503178579       -0.1993206865      -16.2494930583
 H        -2.6094751883        1.0420654824      -16.0363783097
 H        -2.3635761530        1.7890535035      -12.5741526930
 H        -3.5114831471        0.4261501026      -12.9690433944
 H        -3.3664855185        1.6979136620      -14.0268035920
 H        -2.4394113846       -2.0236585001       -6.2563105595
 H        -3.4558982706       -0.6765063940       -6.4877597470
 H        -1.6970326738       -0.5287005503       -6.9228733551
 H        -3.8474789931       -3.5826494479       -7.7606142227
 H        -2.4261328738       -3.7033946680       -8.5533565767
 H        -3.8709907651       -3.2419663672       -9.4023619966
 H        -8.2237667632        2.8205117154       -8.9693758739
 H        -9.7556155907        1.9548269835       -8.7828140323
 H        -8.4145650188        1.1856181678       -9.7148448725
 H        -8.4245768202        1.6049285515       -5.5416407763
 H        -9.5283771777        2.5223965999       -6.4273784167
 H        -7.8145446670        2.9184062038       -6.4858858953
 H       -10.4718963916       -4.8944122283       -6.6952673997
 H       -11.8144883341       -4.7915448512       -7.9127541693
 H       -11.7781013471       -5.8594508734       -6.4620327942
 H       -13.9579064820       -3.7060397185       -7.0841708109
 H       -12.6820688767       -2.7046952033       -7.7452421316
 H       -13.4677573938       -2.0923908971       -6.2024212019
 H       -18.4676617206       -1.0153648721       -3.8446445367
 H       -18.3095319544       -2.6967956508       -3.5338895170
 H       -17.1249466331       -1.9910840785       -4.7395871625
 H       -16.6342254649        0.5160979234       -2.9957855934
 H       -15.4477301223       -0.5181483353       -3.8054698584
 H       -15.1453120116       -0.1469297791       -2.1907989138
 H       -19.9089189719       -1.9908879058        4.4524940411
 H       -18.4215808865       -2.2050934903        3.6056116160
 H       -19.9591244075       -3.1326968512        3.1526205611
 H       -22.1926109492       -0.6061751213        3.0579982752
 H       -21.8933219258       -2.2388001605        2.5695152105
 H       -21.8211434239       -0.9525981034        1.3752036812
 H       -16.5518183612        3.2980438324        5.1562313433
 H       -17.9081469981        4.2695981757        4.6996180941
 H       -16.3865130545        4.9963246112        4.6601998158
 H       -15.5722049519        5.3774372992        2.3221461289
 H       -17.3183884147        5.6914211126        2.4799413646
 H       -16.7571834105        4.7466137704        1.1797615238
 Na      -17.3394853900        0.9346161456        0.7555994168
 Na        8.9496480779       -3.1941742771      -17.4768951505
