232

 C       -14.3054364173        3.0779111019        3.3649103878
 C       -15.6447136262        2.7606836323        2.7092263603
 O       -15.8212356699        1.7711560264        2.1128856153
 C       -16.8140013419        3.8236121902        2.9020913141
 C       -18.1183347797        3.1819255928        2.3797189195
 O       -18.1189668363        2.9097085099        1.2271747326
 C       -19.2974572206        2.7579348040        3.3624028883
 C       -20.1692277908        1.5599485116        2.8266877184
 C       -19.3562022892        0.2599911680        2.8615534984
 O       -18.1458009517        0.2421477091        3.1099634499
 C       -19.9574467303       -1.1263431131        2.5143095200
 C       -19.4794730935       -1.4182529932        0.9734498605
 O       -19.7612049107       -0.5755219745        0.1080274869
 C       -18.6832349661       -2.6546605427        0.6108534097
 C       -18.2791545983       -2.6352672443       -0.9035505963
 C       -17.2439036704       -1.5975320615       -1.2908799301
 O       -16.8749107684       -0.7713282233       -0.4559977422
 C       -16.6431917539       -1.6158731963       -2.6894467116
 C       -15.8310218621       -2.9238906829       -2.9352045152
 O       -16.2322703807       -4.0563527115       -2.7125063014
 C       -14.4828747000       -2.8002193826       -3.7390080355
 C       -13.9399746230       -4.2479420453       -4.0963962416
 C       -12.4687904784       -4.1376998469       -4.5268997153
 O       -11.6301550384       -4.4256111340       -3.6900880418
 C       -12.0415049015       -3.6509820098       -6.0152729610
 C       -10.9697283281       -2.4758992880       -5.6867981243
 O       -11.4198994414       -1.5452657020       -4.9491064438
 C        -9.4597488396       -2.4605850628       -6.1121817088
 C        -8.7090526631       -1.1156025524       -6.2824761524
 C        -8.9727352235       -0.2682554537       -7.4920519083
 O        -9.9228453675       -0.3806526520       -8.2581586291
 C        -8.0836562863        0.9993550896       -7.5943736937
 C        -6.4153272868        0.7808136569       -7.5671027674
 O        -5.9858491112        0.2410132858       -6.5335231449
 C        -5.6751481967        0.9866581417       -8.8229791844
 C        -4.2313322176        0.4816352941       -8.6782763089
 C        -4.2821575441       -1.0294427503       -9.0656508952
 O        -5.1078305165       -1.6389353936       -9.6655157215
 C        -2.9141513283       -1.6933581970       -8.5518174404
 C        -1.7454691018       -1.2739628038       -9.4997854267
 O        -0.8109140565       -0.5973045873       -9.2138366104
 C        -1.9588714444       -1.6492416601      -10.9734264845
 C        -1.1123277694       -0.6944097273      -11.7593576119
 C        -1.3289117292       -0.6887927593      -13.2666585257
 O        -1.1263030719       -1.7148725500      -13.8749177078
 C        -1.9428219364        0.6097272334      -14.0306271880
 C        -0.6197207487        1.4709228905      -14.0525723927
 O        -0.1268553404        1.8711038732      -13.0428086221
 C         0.2037346966        1.4956950017      -15.2939381440
 C         1.1095833160        0.2516076201      -15.3638310355
 C         2.5691632090        0.5571249443      -15.9052225874
 O         3.0293245621        1.6474908612      -15.6857796361
 C         3.3232135442       -0.5869333327      -16.6800013587
 C         4.7794798678       -0.5769546358      -17.0913248831
 O         5.1526133861       -1.1054127857      -18.1212620523
 C         5.7987617097        0.0428174730      -16.0413459072
 C         6.7650858225        0.9912288699      -16.6641519389
 C         7.9125857644        0.0819816142      -17.3168860388
 O         8.3984230592       -0.8551062883      -16.7347112429
 C         8.4514781988        0.7233195539      -18.7179588148
 C         9.4059922223       -0.3940866508      -19.2414348214
 O         8.8714938953       -1.4773340122      -19.6157394487
 C        10.8846291136       -0.2214487845      -19.0430505139
 C        11.7534083552       -1.2471022696      -19.7469979158
 C        11.6332721288       -2.6724233420      -19.0754630397
 O        11.2302375866       -2.7419284562      -17.9093282124
 C        12.2956579200       -3.8593261014      -19.7793336632
 C        11.0676907869       -4.8397799854      -20.1365542695
 O        11.0774202127       -5.9909575202      -19.7624150219
 C         9.9727297377       -4.1916054286      -21.0277107859
 C         8.7444643826       -5.1663026850      -21.2609232848
 C         8.3177868878       -5.6572824757      -19.8742514578
 O         8.3155465489       -4.9048809445      -18.9295658724
 C         7.4107792637       -6.9996679056      -19.5606902597
 C         7.7354608698       -7.2654820974      -18.0230418793
 O         7.0490711972       -6.7325239257      -17.1701509738
 C         9.0318415035       -7.8942069340      -17.6162249934
 C         9.3754735948       -7.4078327338      -16.1851221595
 C         9.2351886923       -5.9329612942      -16.0119900879
 O         9.6637712030       -5.1279306092      -16.8465809557
 C         8.5021444434       -5.4978008828      -14.6498146218
 C         7.1842305211       -4.6904568566      -15.0884571501
 O         7.1400931499       -3.5630499083      -15.6213584525
 C         5.8861091318       -5.3602206729      -14.6624219448
 C         8.2045557005       -6.6824478276      -13.7194524823
 C         9.3868533248       -4.4375773526      -13.9143377986
 C         5.9128066330       -6.4850084854      -19.7338702248
 C         7.8586466773       -8.0704930341      -20.4569151502
 C        13.1319637007       -3.4462975001      -21.0697129652
 C        13.2105536210       -4.5821026072      -18.7608002482
 C         7.1892549318        0.9284989807      -19.6424732678
 C         9.0415729908        2.1655980289      -18.3376213894
 C         3.2574889894       -1.8872232574      -15.7721956703
 C         2.5805941142       -0.9715863458      -17.9739766523
 C        -2.2567536079       -0.0399281305      -15.3295570535
 C        -3.1440753933        1.2572194470      -13.3113843871
 C        -2.6012547279       -1.2334826569       -7.1704263947
 C        -2.8523882833       -3.1423386093       -8.5082085233
 C        -8.5527239524        1.8061167275       -8.8234547986
 C        -8.5138525413        1.7815478696       -6.2522675412
 C       -11.4498191222       -4.9093321483       -6.6382876103
 C       -13.2067941636       -3.0255566135       -6.7987043541
 C       -17.8743795193       -1.8391059569       -3.6356600214
 C       -15.8454364277       -0.3244259820       -2.9482916573
 C       -19.4340201757       -2.1758038775        3.4836770009
 C       -21.5282264184       -1.0082206874        2.5565100528
 C       -16.9328476968        4.2083529033        4.3807174566
 C       -16.4922261461        4.9638074480        1.9788123264
 H       -14.5414628343        3.1628579732        4.4308836123
 H       -13.6946170976        3.9122965771        3.0769080510
 H       -13.6046920169        2.2532587399        3.3229160933
 H       -20.0175448026        3.5178777902        3.2938026470
 H       -19.1116213531        2.6281361726        4.4379060214
 H       -20.4290749446        1.7870328090        1.7850993613
 H       -21.0481280943        1.4800891433        3.4275156053
 H       -19.2532788338       -3.5337504817        0.9449831783
 H       -17.7385641053       -2.6656159422        1.1705396169
 H       -19.2091539371       -2.4455205818       -1.4191126067
 H       -17.9576507561       -3.6456021411       -1.2998393714
 H       -13.7262332711       -2.1753967118       -3.2663271432
 H       -14.8549221177       -2.1808379210       -4.5021953356
 H       -14.4379468175       -4.7563086416       -4.8857440814
 H       -14.0407986687       -4.8963039928       -3.1554144531
 H        -9.2761595940       -3.1524666633       -6.9929862027
 H        -8.9950756006       -3.0201055834       -5.2764108091
 H        -7.6010003190       -1.2085328457       -6.3213918022
 H        -8.8439716084       -0.5144745200       -5.3981708975
 H        -5.5779304279        2.0473449525       -9.2190228233
 H        -6.2159270207        0.4526880808       -9.6147822777
 H        -3.7453939232        0.6924234875       -7.7880781600
 H        -3.7032454611        0.9855846344       -9.4589315690
 H        -3.0218685483       -1.5303233151      -11.0717643541
 H        -1.7952598749       -2.7291212550      -11.1876041000
 H        -0.0285974511       -1.0664148671      -11.7519446718
 H        -1.3003050451        0.2898776044      -11.4214226779
 H         0.8898394730        2.3335866098      -15.1737374090
 H        -0.3899215551        1.6271189100      -16.0898932175
 H         0.5658897277       -0.5101759204      -15.8733812260
 H         1.3997974693        0.0355677218      -14.3316006204
 H         6.3136486985       -0.7861475434      -15.5655486222
 H         5.2534864197        0.5599795635      -15.2289061861
 H         7.1131723161        1.8163992951      -15.9937574976
 H         6.2512707483        1.4041899841      -17.5320168430
 H        11.0993981935       -0.1839840326      -17.9276009514
 H        11.1997782349        0.7878529310      -19.3227286661
 H        12.8331857504       -0.9992448380      -19.9578237112
 H        11.3714748052       -1.2606166919      -20.7665273471
 H        10.2011283791       -4.1276914924      -22.0841297492
 H         9.7321025020       -3.1475963228      -20.6533904974
 H         9.2293984900       -5.9215996585      -21.8724025621
 H         7.9390884691       -4.5766173615      -21.7977135767
 H         9.8384521407       -7.6335154707      -18.2813859531
 H         9.1313686900       -8.9956805970      -17.5718707378
 H        10.3943353234       -7.7799363725      -15.8696718354
 H         8.7126379066       -7.7910108727      -15.3659981036
 H         5.6236747843       -6.2265912105      -15.2893853337
 H         5.1801120568       -4.6164179986      -14.7038668115
 H         5.9267725664       -5.7041439819      -13.6216378066
 H         7.5485107240       -7.4176342355      -14.1185428616
 H         7.9583650475       -6.2453784721      -12.7839545396
 H         9.2039075660       -7.2153366498      -13.5327315150
 H         9.6757413687       -3.4897163316      -14.3973152886
 H        10.3097609233       -4.9886294977      -13.7113062225
 H         8.8770612682       -4.2229468059      -12.9313116182
 H         5.2174017475       -7.3060121919      -19.6014195452
 H         5.7309052039       -5.8953582845      -20.6687068734
 H         5.7628664524       -5.8756661314      -18.8334086168
 H         7.2623619846       -8.9843105810      -20.4641803511
 H         8.8377703601       -8.4432396788      -20.1268070832
 H         7.8409135948       -7.7163376778      -21.5239533005
 H        14.0936696239       -3.0099063681      -20.7439480253
 H        12.6897323280       -2.7067178378      -21.6844018323
 H        13.2806628993       -4.2945294891      -21.7445767191
 H        13.2784536742       -5.6307891137      -18.9071580289
 H        12.6189327638       -4.5002867324      -17.7779755445
 H        14.1718165722       -3.9914223692      -18.6422050482
 H         6.4592031177        1.7446436360      -19.4022359486
 H         6.6600127034       -0.0057565362      -19.5258915586
 H         7.5341621657        1.0192274962      -20.5972525939
 H         9.4160902969        2.7209861848      -19.1321672207
 H         9.9435446724        2.1180851995      -17.7185552292
 H         8.3247956201        2.8427587382      -17.7546868091
 H         2.1926796522       -1.9373773059      -15.4126207860
 H         3.8475260535       -1.8818557865      -14.8129222255
 H         3.4975612970       -2.8183530740      -16.3473791541
 H         2.6736484658       -2.0421966680      -18.2488024301
 H         2.8562920395       -0.2690804138      -18.7199503773
 H         1.4794536066       -0.9718897813      -17.8383022489
 H        -3.0347506492       -0.8337422491      -15.1964928510
 H        -1.4447620936       -0.7189160942      -15.6550732884
 H        -2.6591266523        0.6796943905      -16.0422841548
 H        -2.9817344277        2.3109075822      -13.2197730670
 H        -3.2770301796        0.8221839638      -12.3238238982
 H        -4.0487118469        0.9791186063      -13.9480720070
 H        -1.6664051745       -1.7650899722       -6.8657665401
 H        -3.3682300051       -1.4872571816       -6.4029029850
 H        -2.2740536923       -0.1759287980       -7.2445603484
 H        -3.5010961073       -3.5930941841       -7.7005288147
 H        -1.8154055901       -3.4421320051       -8.3437623526
 H        -3.2476413101       -3.7215369053       -9.3951581960
 H        -7.8282194289        2.5739946913       -8.8860822714
 H        -9.4986710456        2.3259232707       -8.5253812473
 H        -8.6320790386        1.0236551418       -9.6179504735
 H        -7.9491136314        1.5735409022       -5.2682921486
 H        -9.6297590707        1.6406682509       -6.0921372321
 H        -8.4812043530        2.8788118427       -6.4277241135
 H       -10.7155933911       -5.3665744941       -5.9623548795
 H       -11.1776734919       -4.6370398598       -7.6319837086
 H       -12.2735112593       -5.7024110699       -6.7086153277
 H       -14.1533287499       -3.4423654969       -6.6908209825
 H       -12.9866655586       -3.1870990480       -7.8807610492
 H       -13.1537074648       -1.9940030960       -6.4660334359
 H       -18.6319237045       -1.1655448330       -3.4959160213
 H       -18.3157329526       -2.8408498144       -3.5041249019
 H       -17.4542938703       -1.7814522381       -4.5852057893
 H       -16.4543624767        0.4353344138       -2.4431616383
 H       -15.5782512053       -0.0603587263       -3.9860233067
 H       -14.8995390519       -0.4538469279       -2.4272952842
 H       -19.8614876568       -2.1046605517        4.4957283775
 H       -18.3739477617       -1.9232565362        3.5628610653
 H       -19.7128637427       -3.2012564577        3.0608968588
 H       -21.9034596269       -1.0691943906        3.5948048297
 H       -22.0629785680       -1.8422508077        2.1627661876
 H       -21.9955427274       -0.0841444975        2.1129454948
 H       -16.9991574189        3.3758964290        5.0788201073
 H       -17.7952274306        4.9884686241        4.6010290145
 H       -15.9864417397        4.6569467030        4.7047134582
 H       -15.7573115423        5.4965018071        2.5199471585
 H       -17.3881026525        5.6422529514        1.8990833380
 H       -16.0488465925        4.7132541705        0.9850435675
 Na      -17.5121422769        0.8637976839        0.8874313207
 Na        8.7907491472       -3.0848802900      -17.3111611786
