232

 C       -18.9819603437      -12.2504845937       -0.3481438396
 C       -17.7520716201      -12.3973870319       -1.2802322755
 O       -17.6617405687      -11.6807791142       -2.2732154409
 C       -16.7913566378      -13.6802000920       -0.9359416316
 C       -15.2942420791      -13.4180105827       -1.5302976447
 O       -15.0603851277      -13.7471961653       -2.6580921395
 C       -14.1849677375      -12.9882514283       -0.5695203775
 C       -12.9050059031      -12.6529840598       -1.4328958781
 C       -13.2067317954      -11.7512354066       -2.5645835848
 O       -14.1740712335      -10.9771405666       -2.5465788978
 C       -12.2963930959      -11.6371373909       -3.8688263076
 C       -13.3530825518      -11.5826200098       -5.1104184084
 O       -14.1018129427      -12.5880759645       -5.3567013690
 C       -13.3570303862      -10.2494779646       -5.9330718879
 C       -14.6646885689       -9.9034313081       -6.6678368784
 C       -15.8164394625       -9.3399535946       -5.7984711742
 O       -16.3968062407      -10.0810823504       -4.9974762603
 C       -16.1904761031       -7.8570849475       -6.0815609030
 C       -14.8570022224       -6.9147329033       -6.4726777206
 O       -13.8173371801       -7.0619482065       -5.8379513129
 C       -14.9760191118       -5.9927037302       -7.7355190429
 C       -13.7378474111       -6.0648339121       -8.5919713913
 C       -14.0469071616       -5.1178498312       -9.7843464342
 O       -15.2361443578       -4.9187478177      -10.1407927368
 C       -12.7470913005       -4.4057188909      -10.3337593035
 C       -12.1094324018       -3.5054117317       -9.2147638377
 O       -12.3351617158       -3.6193319162       -8.0363275687
 C       -10.7732217994       -2.5819511201       -9.6702807943
 C       -10.2749254845       -1.8633979907       -8.4144955255
 C       -10.4876799745       -0.3545617724       -8.3850754558
 O       -11.0131687708        0.2144768005       -9.3355784457
 C        -9.6179906013        0.3616957563       -7.3173034055
 C        -8.1243404339        0.2050626035       -7.8978343955
 O        -7.4370981582       -0.7048558281       -7.5076759544
 C        -7.7558980734        1.3509458413       -8.8017286090
 C        -7.0313422520        0.8006458855       -9.9925717239
 C        -5.8544046174        1.6331730976      -10.5011367329
 O        -5.9067374412        2.8066804037      -10.1785733263
 C        -4.8100746947        1.1341188373      -11.5899993355
 C        -3.5195058356        0.6759376260      -10.6790704724
 O        -3.4021946037       -0.4885919726      -10.4057610854
 C        -2.3402144101        1.6542667832      -10.4274083512
 C        -1.2001228241        0.9366320458       -9.7468077603
 C         0.0513772320        1.9414677895       -9.3335660924
 O        -0.2354405188        3.1127070031       -9.0311409766
 C         1.4204616752        1.2918125496       -9.1024905493
 C         2.4506054833        2.4161603239       -9.1143903346
 O         3.1279986010        2.5720655382      -10.1213936956
 C         2.4905104988        3.4734746104       -7.9624959957
 C         3.7043532514        4.3435178520       -8.0953444071
 C         3.7269170892        5.1553002914       -9.4272644909
 O         2.7028131928        5.6903632686       -9.8611531063
 C         5.1217644363        5.1273367270      -10.3513457983
 C         4.7903684562        4.5714299612      -11.7688968520
 O         5.7315585629        4.0701165266      -12.4272843680
 C         3.4495788213        4.7339032901      -12.5179573676
 C         3.6305555145        6.0104611237      -13.3068006140
 C         3.5460670471        5.7637551030      -14.7796100842
 O         3.6927083981        4.6732997314      -15.3076851016
 C         3.5333505940        6.9665729357      -15.7491593838
 C         4.9755860956        6.8596131497      -16.7338525603
 O         4.9448976652        6.6808305719      -17.9164146155
 C         6.2388878272        7.0462099914      -15.9361402356
 C         7.4127422194        6.3130935894      -16.5575538498
 C         7.1938274006        4.8444599695      -16.7294509127
 O         6.2625225933        4.3000990761      -16.1368969312
 C         8.2418811521        3.9788217459      -17.6175219045
 C         9.5863380257        4.0477366373      -16.7258852888
 O         9.5001316408        4.3888053320      -15.5274272834
 C        10.9097451267        3.5953761582      -17.3043936843
 C        11.6058631167        2.4667997286      -16.5519152583
 C        11.1262006412        1.0590328085      -16.9751701676
 O        10.6956473993        0.8915496829      -18.0955070834
 C        11.2297342323       -0.1862104512      -16.2064244166
 C        11.0708897410        0.1796621266      -14.6601371123
 O        11.9697231731        0.1889074972      -13.8076911436
 C         9.7294299964        0.7738082894      -14.2723602937
 C         8.5578576517       -0.2009994013      -13.8607168849
 C         7.2211911383        0.5311207717      -13.8869544198
 O         6.9673073116        1.4674895681      -14.6163072974
 C         6.0367579190       -0.0520893089      -12.9484828039
 C         4.8068625323       -0.0891779231      -13.9677760523
 O         4.0711513017        0.8777065659      -14.1216378391
 C         4.8330203465       -1.2525191079      -14.9491008890
 C         6.3828078138       -1.5022782524      -12.3768226810
 C         5.8275577240        0.8709750145      -11.7490725786
 C        10.2212409807       -1.2693257899      -16.5728383509
 C        12.5977315384       -0.8804507637      -16.2981521073
 C         7.9087159898        2.4662699419      -17.8505125569
 C         8.5440368427        4.6906806711      -18.9281982691
 C         2.5085325697        6.8700057660      -16.8643363206
 C         3.5630197557        8.3849060072      -15.0418778399
 C         5.4744765339        6.6197999679      -10.6214467981
 C         6.2257910764        4.4334069942       -9.7402381556
 C         1.4380508374        0.5104950147       -7.6414832521
 C         1.6205422620        0.2893221352      -10.2709066497
 C        -5.4139984122       -0.1593238974      -12.2106035313
 C        -4.4152893155        2.3249417368      -12.5613499697
 C       -10.1228996727        1.8448902580       -7.2250823933
 C        -9.5813117533       -0.3311087241       -5.9933092437
 C       -11.6779470364       -5.4811045585      -10.5843960353
 C       -13.0274672841       -3.5416247281      -11.5693451436
 C       -17.2351544592       -8.0366343139       -7.1774196109
 C       -16.6611547690       -7.1291731135       -4.7755307675
 C       -11.4493835935      -10.2684984865       -3.7380164329
 C       -11.3836036772      -12.8345874823       -4.1497916046
 C       -16.7558566250      -13.8734514647        0.5509799614
 C       -17.4619803204      -14.8352377673       -1.7382641428
 H       -18.6326961386      -12.0661102743        0.6625869691
 H       -19.7423501852      -13.0289923410       -0.3521781917
 H       -19.3929218661      -11.3041837740       -0.6965859123
 H       -13.9500107924      -13.7320535811        0.2289814609
 H       -14.4213132189      -12.0830109723       -0.0376521981
 H       -12.4995966181      -13.6161880372       -1.8321040323
 H       -12.0754705815      -12.2096800317       -0.7908434510
 H       -12.4361864445      -10.4240126473       -6.5548092563
 H       -13.2303588085       -9.4669858351       -5.2046865137
 H       -15.0658753999      -10.8609705166       -7.1045456695
 H       -14.5609729284       -9.1899715097       -7.4370431982
 H       -15.0797885228       -4.9708882667       -7.3687497250
 H       -15.8787241266       -6.2205202550       -8.3475143134
 H       -13.6503628941       -7.1267528279       -8.9680122901
 H       -12.8523962269       -5.7982529181       -8.0458255706
 H       -11.1164147936       -1.8980797821      -10.4115722877
 H       -10.1230277008       -3.3670472665      -10.0000061413
 H        -9.2643284800       -1.9946005354       -8.2056526429
 H       -10.8384167287       -2.3522565504       -7.5507825982
 H        -7.0432545225        1.9336475350       -8.1834200007
 H        -8.6122498528        1.9637456952       -8.9521919043
 H        -7.7313371566        0.5965618464      -10.8785973633
 H        -6.7196646513       -0.1956804811       -9.6733850239
 H        -2.6514533427        2.5665924908       -9.8825389400
 H        -2.0339198628        1.9357418159      -11.3884801839
 H        -0.7079003004        0.0976193487      -10.2810338892
 H        -1.4124896462        0.5024882671       -8.7881923912
 H         2.5151111868        3.1868748551       -6.9365634825
 H         1.5911040753        3.9896487142       -8.0975863842
 H         4.6707798584        3.8315053414       -7.9271144823
 H         3.6505612789        5.1139403435       -7.2578178594
 H         2.6667870993        5.0585382047      -11.8099247120
 H         3.1327426567        3.9006084884      -13.0922727640
 H         4.7159876043        6.2967655310      -13.1467342260
 H         3.0332635887        6.8768675041      -13.0512025706
 H         6.0954134117        6.7805978016      -14.8727704428
 H         6.4805909814        8.0921569460      -15.9287606619
 H         8.2717299163        6.4681490859      -15.9200597946
 H         7.6394161250        6.7415534530      -17.5963811854
 H        11.6373796906        4.4128563358      -17.3361788712
 H        10.7152147816        3.3603689077      -18.3123350407
 H        11.4851772062        2.6984223490      -15.5141464088
 H        12.7047731114        2.4626588671      -16.9158627107
 H         9.4438115185        1.4414144578      -15.1612808105
 H         9.9565614390        1.4113801088      -13.4225050995
 H         8.8275319611       -0.4880702962      -12.8361812566
 H         8.5315662498       -1.0519338209      -14.5015330055
 H         4.4495577811       -2.1594485682      -14.4319461769
 H         5.7750771269       -1.3987055178      -15.3356420276
 H         4.1837883593       -1.1749885935      -15.7594187431
 H         5.5070783475       -1.9268237838      -11.9096410825
 H         7.0597055909       -1.3101244249      -11.5160275690
 H         6.7947670938       -2.1871636740      -13.1459843696
 H         6.1779874847        1.8308843495      -12.0797340550
 H         6.2441518195        0.7008858099      -10.7284783370
 H         4.6901466428        0.9949323439      -11.5230827458
 H        10.7255484601       -1.8847124539      -17.3089885841
 H         9.3594182294       -0.7127785078      -16.9340735784
 H         9.9707209481       -1.9254629633      -15.6831321828
 H        12.7623279809       -1.3708800436      -17.2597909914
 H        12.5791475736       -1.7143498627      -15.5759845258
 H        13.5160866319       -0.2667929181      -16.0936957791
 H         7.0698816072        2.0654337640      -17.2453459517
 H         8.7334703977        1.8018572261      -17.8558452464
 H         7.4340431793        2.3546677474      -18.8102947335
 H         8.9108925042        5.6870406658      -18.7809396412
 H         7.6314430557        4.4801471108      -19.4367961152
 H         9.2610334770        4.0241200035      -19.4789110977
 H         1.5044800334        7.1803771710      -16.5577288868
 H         2.3066241586        5.9136691125      -17.1286995165
 H         2.8401652330        7.5525500435      -17.6453970276
 H         3.6505952668        9.2006961864      -15.7726335074
 H         4.3355541581        8.4865409260      -14.3246251766
 H         2.7035619756        8.4980255538      -14.4516985532
 H         5.5604285482        7.2278745861       -9.7459044295
 H         4.7414817768        7.2891243636      -11.1889821664
 H         6.3434392654        6.8200039030      -11.1609385445
 H         7.1195212375        4.5323555169      -10.3050563583
 H         6.1228374762        3.3680467977       -9.6551949412
 H         6.3738461849        4.7097488964       -8.7699753882
 H         0.5813541256        0.9308538763       -7.0275881469
 H         2.4152634067        0.7863769263       -7.0873873268
 H         1.4158622911       -0.6302316431       -7.7281211330
 H         1.3600218657       -0.7311230565       -9.9601915250
 H         2.6351518807        0.1797221278      -10.4985580417
 H         1.1535649394        0.6207244733      -11.1925044850
 H        -5.3495563978       -1.0058695568      -11.5780063446
 H        -4.6562765465       -0.4599704474      -12.9727188489
 H        -6.3460072567       -0.0150597211      -12.7231290721
 H        -3.4031094379        2.1706092345      -13.0528763092
 H        -4.4783038471        3.2878386583      -12.0697277669
 H        -5.1499662217        2.3208861988      -13.3563743396
 H       -10.8513276910        2.0580146243       -6.4730528320
 H       -10.4123530616        2.2349807432       -8.2099899052
 H        -9.3033976279        2.6054358319       -7.0210681335
 H        -8.7123392885        0.0256550834       -5.3692228547
 H        -9.5712130898       -1.4254096683       -6.0819208598
 H       -10.4798590464       -0.0595151067       -5.3905876134
 H       -10.8837101686       -5.0363774843      -11.1729384679
 H       -11.9064080005       -6.4378717700      -11.0991673707
 H       -11.1173729618       -5.7865277345       -9.7108214144
 H       -13.9361123245       -3.8073127277      -12.1075039372
 H       -12.1216851152       -3.4890198459      -12.2261925926
 H       -13.1849221465       -2.5630677544      -11.2472171124
 H       -16.9059623305       -8.5005596165       -8.1038282624
 H       -17.6801577440       -7.0720347605       -7.3566348900
 H       -18.1692825886       -8.6150265923       -6.9068666459
 H       -15.7978080426       -6.8690068214       -4.2422163132
 H       -17.4750269019       -7.6991199424       -4.2925059382
 H       -17.0874595184       -6.1294249134       -5.1795723336
 H       -12.1198188302       -9.4417094526       -3.4132867137
 H       -10.9673263051      -10.0863100487       -4.6918017676
 H       -10.7410516293      -10.4099644738       -2.9640727442
 H       -12.0112356354      -13.7130201134       -4.3740863659
 H       -10.7296843284      -12.9963894265       -3.2289501469
 H       -10.9600104505      -12.5240931691       -5.0551047561
 H       -16.2966578318      -13.1876868268        1.1270586946
 H       -16.3246972582      -14.8040140398        0.7582873425
 H       -17.8096392994      -13.7939418204        0.9259639847
 H       -17.5730727601      -15.7273897096       -1.1437633460
 H       -16.8212819016      -15.1096341743       -2.5761341317
 H       -18.4440793230      -14.4655781760       -2.1585066119
 Na      -15.9950811364      -11.8366861683       -3.6574590469
 Na        5.3185383664        3.0541946516      -14.2416971441
