232

 C       -14.4780058016        2.9287166347        3.6937503637
 C       -15.6543114309        2.7792095649        2.7975389625
 O       -15.7238928888        1.7599104998        2.0819831682
 C       -16.8612644526        3.8159218062        2.8015368926
 C       -18.1733627514        3.1508728291        2.3204399297
 O       -18.3210574126        2.8480636967        1.1289060755
 C       -19.1990275082        2.9463612794        3.3024200968
 C       -20.0972329735        1.6924712107        2.9322014728
 C       -19.3529156671        0.3655095826        3.1292126319
 O       -18.2465565008        0.2758974235        3.5607408234
 C       -20.0166772232       -0.9632407911        2.5076235328
 C       -19.4344636730       -1.1153917633        1.0849625386
 O       -19.3807217508       -0.1224784062        0.3839400436
 C       -18.8627447547       -2.3834555258        0.5248906729
 C       -18.6762948898       -2.2270941383       -1.0083710719
 C       -17.4206662160       -1.5191547593       -1.3611605416
 O       -16.7828159041       -0.9033889169       -0.4511510723
 C       -16.8358926530       -1.6068566362       -2.7994949667
 C       -16.0254902729       -2.9123305954       -3.1584139339
 O       -16.5931255845       -3.9341122238       -2.8816325924
 C       -14.7555075259       -2.8009661731       -3.8968765412
 C       -13.9782326086       -4.1461232390       -4.0872910313
 C       -12.4292512807       -3.9355952738       -4.2871942402
 O       -11.6019210884       -4.1318803277       -3.4334224595
 C       -11.8591235590       -3.5442387041       -5.6999309665
 C       -10.9414870355       -2.2698648917       -5.5973783266
 O       -11.4946821290       -1.2618644546       -5.2815939304
 C        -9.4172125032       -2.3435938786       -5.7952716307
 C        -8.7898351132       -0.9626650515       -5.8584844455
 C        -8.6915151854       -0.3272228935       -7.2600993694
 O        -8.9922063518       -0.7857228974       -8.3360151635
 C        -7.8247645122        1.0743981138       -7.1990070657
 C        -6.4480068124        0.4507259310       -7.4181527929
 O        -5.9191988207       -0.1708377406       -6.5247601769
 C        -5.8087913730        0.4035782462       -8.7877070082
 C        -4.1618854713        0.1752919790       -8.5316329907
 C        -3.7806281608       -1.1408454757       -9.1663490554
 O        -4.4353164810       -1.5681093814      -10.1365198725
 C        -2.5065533282       -1.9362311437       -8.7780668866
 C        -1.4370055201       -1.4356817528       -9.7589646775
 O        -0.6228386547       -0.5911901234       -9.3424462959
 C        -1.4021882967       -1.9892992448      -11.2269544164
 C        -0.7584519627       -0.9151628092      -12.0989500223
 C        -1.4667560388       -0.8296812869      -13.5587258609
 O        -1.6305428257       -1.8567101680      -14.2361885025
 C        -2.0709605765        0.4708020814      -14.0238053318
 C        -0.8400729525        1.4758856551      -14.2212230514
 O        -0.5799473759        2.4014893213      -13.4436224923
 C        -0.1074317000        1.2636025250      -15.6317829606
 C         0.8089167602       -0.0526627554      -15.8080762605
 C         2.2037782651        0.3246542247      -16.3846031852
 O         2.6852311047        1.4173730110      -16.3133897686
 C         3.1733095048       -0.7647265558      -16.9235158238
 C         4.6907392436       -0.1343575758      -16.9602783810
 O         5.1260358200        0.0607864833      -18.0787013801
 C         5.5461712077        0.4351604962      -15.8089374712
 C         6.6872492178        1.1320702180      -16.4579363649
 C         7.6898256718        0.1493252019      -17.1808998175
 O         7.9854126326       -0.8731535090      -16.6263274544
 C         8.1798512093        0.6390706838      -18.5251372657
 C         9.2059771103       -0.5471382015      -18.9526554655
 O         8.7776036271       -1.4380163742      -19.6337836111
 C        10.7975400446       -0.5034615301      -18.6616288547
 C        11.5165220905       -1.4659306712      -19.5840358060
 C        11.6033706897       -2.9107578869      -19.1248451613
 O        11.1186672363       -3.2618678072      -18.0801573629
 C        12.3337654997       -3.9903373807      -19.9829146828
 C        11.2418993608       -5.0331356535      -20.2512537441
 O        11.2689297632       -6.1695523073      -19.8214866435
 C        10.0203104438       -4.6573978922      -21.1470707185
 C         8.9128439785       -5.6611839652      -21.0658614747
 C         8.1211614059       -5.5893871669      -19.7659075476
 O         7.8910354601       -4.4702549679      -19.3162057820
 C         7.5049193089       -6.8340765452      -19.2031738375
 C         7.9440115243       -7.0957628659      -17.6618082320
 O         7.0546057311       -7.1134201134      -16.8070312959
 C         9.3763449395       -7.4468802860      -17.3317422672
 C         9.6466331557       -7.2236821017      -15.8878391773
 C         9.4418187153       -5.6824754587      -15.5735435046
 O         9.9921072649       -4.8950493898      -16.2524468009
 C         8.4928988756       -5.2009142585      -14.4433640104
 C         7.1893268864       -4.6197634520      -15.2815009322
 O         7.2309939374       -3.7577969529      -16.1565237989
 C         5.7935260481       -5.1156322625      -14.9577563854
 C         7.9507379720       -6.5006824482      -13.5787147304
 C         9.0405526884       -4.1097910365      -13.4596252307
 C         6.0226536739       -6.4811336627      -19.1820702967
 C         7.6785278563       -8.3084224942      -19.8278099753
 C        12.8844257566       -3.4742878001      -21.4073212377
 C        13.3724982881       -4.6348231139      -19.1383512922
 C         7.1328452525        0.8617583229      -19.6010173737
 C         8.9005454358        1.9710356868      -18.2399285380
 C         3.1560090728       -2.0455285422      -16.0204948980
 C         2.7522234192       -1.1115280774      -18.3317936849
 C        -2.5953164910        0.1090443184      -15.4043770023
 C        -3.1978634100        1.0940885746      -13.0620367930
 C        -2.2367452877       -1.6104002747       -7.2466991176
 C        -2.6683115273       -3.5557428837       -8.9872513312
 C        -8.3062527193        1.9728568530       -8.3970464823
 C        -7.8564259833        1.9440927355       -5.9353747885
 C       -11.1660863247       -4.9128686656       -6.1603147088
 C       -13.0095153386       -3.1828081331       -6.8771774382
 C       -17.9789791439       -1.6723603063       -3.7743399418
 C       -16.0583065270       -0.2891595519       -3.0166484078
 C       -19.6010382348       -2.2124658056        3.4143674276
 C       -21.5076910277       -0.9733056319        2.4827783731
 C       -16.8849975164        4.5502837098        4.1048125589
 C       -16.5019660859        4.8395827974        1.6314987258
 H       -14.6923672610        2.3714184061        4.6218265528
 H       -14.2257989609        3.9427582257        3.9467329046
 H       -13.5932279128        2.3843874928        3.3675156126
 H       -19.7119229959        3.8789115563        3.6343647570
 H       -18.7105603107        2.6892532276        4.2386380099
 H       -20.4695706062        1.8130310871        1.9324571125
 H       -20.9994110209        1.6200813631        3.5268213700
 H       -19.4911962672       -3.2871815458        0.7306373195
 H       -17.9475937895       -2.6209261551        1.0557607967
 H       -19.5927114753       -1.7286441144       -1.2736258230
 H       -18.7224983410       -3.2511898311       -1.4338674500
 H       -14.1088039978       -2.0440918661       -3.3978180004
 H       -15.0490557498       -2.3479069846       -4.8166754471
 H       -14.4648712135       -4.6264711538       -4.9836273633
 H       -13.9984335289       -4.7916016036       -3.2632935664
 H        -9.0155381885       -3.1100559324       -6.5149796689
 H        -8.9922502336       -2.7990888591       -4.8659390640
 H        -7.7832877274       -0.9942758980       -5.4231121278
 H        -9.3816362090       -0.2522771852       -5.2716638617
 H        -6.0394878020        1.3022349714       -9.4031058266
 H        -6.2713968504       -0.4137833620       -9.3993341007
 H        -3.9119747352        0.2203870149       -7.5083677087
 H        -3.5241928732        0.8055692382       -9.1037058633
 H        -2.3944185345       -2.3275589151      -11.5834643069
 H        -0.8553523409       -2.9315074527      -11.1138176595
 H         0.3461122600       -0.8619105920      -12.1772798860
 H        -0.9978709086        0.1609811238      -11.7278474545
 H         0.5316861832        2.0389217326      -15.7407476779
 H        -0.8784728580        1.2690774943      -16.4031025748
 H         0.3749308074       -0.8008900208      -16.4653600530
 H         1.0287033074       -0.4432132479      -14.8102843927
 H         5.7468017215       -0.3703527908      -15.0916473277
 H         4.9443135576        1.1453821170      -15.2539197944
 H         7.3035384711        1.7343662313      -15.7521158763
 H         6.3963335016        1.8191278547      -17.2827930964
 H        11.1080548374       -0.7130160845      -17.6244620630
 H        11.2810684586        0.4758462283      -18.6750046741
 H        12.5651358272       -1.1647216519      -19.5826249645
 H        11.0896976723       -1.3533593694      -20.6419630309
 H        10.3510522807       -4.4809046939      -22.2069022402
 H         9.5164074374       -3.7279281998      -20.8057924752
 H         9.3310957312       -6.7044465432      -21.1717152445
 H         8.2055567817       -5.4870756594      -21.9077969460
 H        10.1469705687       -6.9806334465      -17.9795647743
 H         9.3324684950       -8.5638120794      -17.3800232596
 H        10.6514356619       -7.4135121387      -15.4032463738
 H         8.9731728112       -7.8447907433      -15.2875787591
 H         5.8058402800       -5.9538669401      -14.2876777599
 H         5.2012071696       -5.1658896295      -15.8856529205
 H         5.3973975911       -4.4345389805      -14.2739747628
 H         7.2958615828       -7.1597471362      -14.1812379498
 H         7.3100343098       -6.1487776890      -12.7266014614
 H         8.7474155240       -7.0084351042      -13.1182422669
 H         9.4106527930       -3.3732443560      -14.1661684493
 H         9.7402547361       -4.5351552986      -12.7391268889
 H         8.3415144173       -3.5622554854      -12.8626289308
 H         5.5008128568       -7.1276257616      -18.4433365270
 H         5.6170045840       -6.5996522932      -20.2198528140
 H         5.8911084522       -5.4447355271      -18.9818742299
 H         6.8259785608       -8.9517338189      -19.5569688960
 H         8.6004141957       -8.8148077781      -19.5127844176
 H         7.7180003847       -8.2521804171      -20.8984579989
 H        12.4279248696       -4.0177266944      -22.2046138919
 H        13.9273328008       -3.8201861317      -21.3750812673
 H        12.7939207389       -2.4131605361      -21.6318451704
 H        13.7684642890       -5.6542509106      -19.5382439776
 H        12.8365736650       -4.8554827650      -18.2338461931
 H        14.1660604566       -3.8964364846      -18.9083140061
 H         6.6087459797        1.7248851074      -19.4101759359
 H         6.6301978612       -0.0446130577      -19.8367862579
 H         7.7552269221        1.0524977767      -20.5160226646
 H         9.4883136113        2.4748194457      -19.0675032852
 H         9.4401812639        1.9964215481      -17.2991783614
 H         8.1272766236        2.6078538923      -17.9201117511
 H         2.1577641520       -2.5378551199      -16.0259172597
 H         3.5934348545       -1.8244072547      -15.0480037172
 H         3.8574564366       -2.8145683082      -16.5187117849
 H         1.8491013436       -0.5737923617      -18.7004452288
 H         2.6399939897       -2.2552471686      -18.4163451284
 H         3.5818541246       -0.8341056460      -18.9308297074
 H        -3.4271893282       -0.5787924716      -15.4057829074
 H        -1.6922762434       -0.2491903074      -15.9677658486
 H        -2.9250805980        1.0839051599      -15.8400279570
 H        -4.1604885245        1.1055333519      -13.5543066769
 H        -2.8412212261        2.1007903539      -12.8272779364
 H        -3.4184870476        0.5136668136      -12.2047190778
 H        -1.7092715550       -2.3847419397       -6.6841150399
 H        -3.2926232044       -1.6347100420       -6.8735406821
 H        -1.7915754717       -0.5755505792       -7.1980279043
 H        -3.3881719884       -3.8402839399       -8.2111651841
 H        -1.7380434543       -4.1975798471       -8.9090324505
 H        -3.0806002312       -3.8696137475       -9.9454119935
 H        -7.4330148891        2.6616242208       -8.6323930165
 H        -9.2496976260        2.4231519794       -8.1623652109
 H        -8.5789576172        1.2130071639       -9.1067993583
 H        -7.6527441935        1.3007914272       -5.0586390413
 H        -8.7885784949        2.4963333148       -5.6868929538
 H        -7.0230537248        2.7369776019       -5.8167887189
 H       -10.0876146353       -4.6898016658       -6.1546245554
 H       -11.5191416774       -5.1661392289       -7.1990839369
 H       -11.4514851712       -5.7118753117       -5.5035423233
 H       -13.8894182139       -3.8864203171       -6.7621496920
 H       -12.4743274615       -3.4111499798       -7.7527916630
 H       -13.2800166661       -2.1178303191       -6.9436308582
 H       -18.6489654483       -0.8212691671       -3.7828439643
 H       -18.4172813097       -2.5702215608       -3.6095130739
 H       -17.5357325673       -1.7789841672       -4.7142264682
 H       -16.5619274539        0.6047331526       -2.7515493069
 H       -15.8870265466       -0.2064483681       -4.1165953221
 H       -15.0730014372       -0.2604291342       -2.4694955947
 H       -20.3163334440       -2.2269192155        4.2436507016
 H       -18.4927712764       -2.2643694254        3.7347265172
 H       -19.8339069219       -3.1363260604        2.8562070451
 H       -22.0053834442       -0.6597978611        3.4086692911
 H       -21.9654232222       -1.9886734869        2.2370157669
 H       -21.9233370824       -0.2949657659        1.7597993688
 H       -16.7794213066        3.8602420335        5.0354135033
 H       -17.8177267903        5.0705946515        4.1407428101
 H       -16.0314104286        5.2986496013        4.2650422794
 H       -15.3897822170        5.0596482591        1.5205557866
 H       -16.9678381323        5.7994604404        1.7167284343
 H       -16.8350573872        4.3322417981        0.7660064857
 Na      -17.2685466082        0.8061476370        0.9209037455
 Na        8.8246850933       -3.0050922977      -17.5071923082
