232

 C       -14.5183804727        3.0350067190        3.9053708977
 C       -15.5809783815        2.7800305291        2.8228856448
 O       -15.4610349621        1.7918998143        2.1197565992
 C       -16.8121499223        3.7735545600        2.6655352055
 C       -18.1755264352        3.1364424433        2.3341744664
 O       -18.3594721174        2.7162754379        1.2024055243
 C       -19.2532575109        2.8389958585        3.4204217439
 C       -20.1684288284        1.6623696439        3.1113199931
 C       -19.3809204195        0.3370606096        3.1303129274
 O       -18.1337792666        0.3784609830        3.3698082237
 C       -20.0253353038       -1.0109819444        2.5950764261
 C       -19.5020216818       -1.0342470050        1.1328991236
 O       -19.3799588239        0.0802546821        0.5675846818
 C       -19.1169222388       -2.3415700792        0.4574811854
 C       -18.6464449001       -2.2416388882       -1.0843198282
 C       -17.3610174316       -1.5129831643       -1.4664122741
 O       -16.7267963906       -0.9391708871       -0.6281753610
 C       -16.8869422866       -1.5207248260       -2.9482187965
 C       -16.0781324110       -2.7616450096       -3.1987090368
 O       -16.4437106448       -3.8943435105       -2.9117202888
 C       -14.6725357791       -2.6256515064       -3.7295664656
 C       -14.0299653109       -4.0000064330       -4.0200173742
 C       -12.4999434492       -3.9120967441       -4.2793462896
 O       -11.8029988652       -3.8500746283       -3.2955534056
 C       -11.8612042694       -3.6700319703       -5.7475090044
 C       -11.0214001307       -2.2963589997       -5.5360436509
 O       -11.7441776799       -1.2732954636       -5.4108933783
 C        -9.4782825025       -2.2504729055       -5.6554472961
 C        -8.8824213045       -0.8362409501       -5.5704083814
 C        -8.5645574203       -0.3145028285       -7.0550972486
 O        -8.9271763417       -0.9642638342       -8.0182584094
 C        -7.7002264891        0.9445711349       -7.1892260010
 C        -6.2982610138        0.3947779913       -7.2999280880
 O        -5.8204612151       -0.1473238872       -6.3126749190
 C        -5.4930329491        0.5133073419       -8.5849701997
 C        -4.1864719608       -0.1304411821       -8.6150624230
 C        -3.8173231035       -1.4287613587       -9.4997529852
 O        -4.4069001264       -1.7192372689      -10.4783192056
 C        -2.3894597236       -2.0446814090       -9.0311295090
 C        -1.2578734136       -1.4520336104       -9.9198826283
 O        -0.5068999588       -0.6358534756       -9.4830496096
 C        -1.1983907158       -2.0141069355      -11.3198350529
 C        -0.5930624444       -0.9794031186      -12.2301091510
 C        -1.3789123599       -0.9447442124      -13.5232088781
 O        -1.7003364751       -1.9961388974      -13.9988242398
 C        -2.0992950363        0.3441444199      -14.1125997665
 C        -0.9576342038        1.4374161499      -14.4244662569
 O        -0.7936073061        2.3855661015      -13.7258363992
 C         0.0745033322        1.3503425786      -15.5998850878
 C         0.7844810280        0.0611867632      -15.8259935515
 C         2.0971522604        0.3928937136      -16.4307884211
 O         2.3978521501        1.5729473840      -16.6613678176
 C         3.0733021088       -0.7036651431      -16.8955846040
 C         4.4987768781       -0.0625625490      -17.2466200106
 O         4.9459418901        0.1812554702      -18.3348013746
 C         5.2470141014        0.4373175041      -15.9623639445
 C         6.6927486383        0.9979544498      -16.1764270704
 C         7.6111620605        0.0948172836      -17.0602731817
 O         7.7977168534       -1.0700538394      -16.7056576068
 C         8.3082410883        0.6142502395      -18.4016139861
 C         9.2736705538       -0.5999237109      -18.8740031228
 O         8.7553397101       -1.5453267936      -19.5028011752
 C        10.7579645267       -0.5434767358      -18.6794983871
 C        11.6144985156       -1.3993752718      -19.7125507608
 C        11.6199159687       -2.8711649341      -19.2468687754
 O        11.2143786622       -3.1650638681      -18.1222244848
 C        12.3581795806       -3.9557123763      -20.0002019352
 C        11.2075384733       -5.0461475486      -20.4120276840
 O        11.4318130792       -6.1708479036      -19.9953817954
 C         9.9930010354       -4.6680606173      -21.1917410163
 C         8.9001092616       -5.8758850003      -21.1041533418
 C         8.0835029966       -5.7124042253      -19.7942547457
 O         8.0166988336       -4.5889922800      -19.3435535523
 C         7.3438688950       -6.8698684799      -19.0106494224
 C         7.8874468546       -7.0837079443      -17.4183850921
 O         7.0550036445       -7.2095243742      -16.5553957317
 C         9.3911593820       -7.3282150516      -17.2694232309
 C         9.7798850653       -6.9850599208      -15.8051261338
 C         9.3878465820       -5.5666722462      -15.3760201710
 O        10.0312238381       -4.6524130699      -15.9158531348
 C         8.2778120241       -5.2356279334      -14.3362172260
 C         7.0188208504       -4.7261084045      -15.2553091417
 O         7.2407363356       -4.0012721318      -16.1580945266
 C         5.6000445029       -5.0316756446      -14.7674179605
 C         7.9057595448       -6.3827043497      -13.3081231760
 C         8.7045798432       -3.8943587975      -13.5591763555
 C         5.8437184864       -6.6273766393      -18.9382219935
 C         7.5325693561       -8.1840493211      -19.8391206780
 C        12.9825440354       -3.3574207429      -21.4335265030
 C        13.6111983404       -4.5649051776      -19.2802881044
 C         7.3489617233        0.8763769545      -19.6869816978
 C         9.1521237163        1.8672935504      -18.1178481539
 C         3.3414419951       -1.8870827636      -15.9256119251
 C         2.5578479989       -1.2752086092      -18.1986830182
 C        -3.0285304351        0.0198381346      -15.4626234400
 C        -2.9834845375        1.0855829781      -13.0823614061
 C        -1.9088277225       -1.6743624644       -7.5525372839
 C        -2.6221242772       -3.5289157404       -9.0912426550
 C        -7.9907931529        1.9907645927       -8.2681983015
 C        -7.8649737206        1.7236723946       -5.8983763148
 C       -11.0296841575       -4.8792107919       -6.1196219827
 C       -12.9479471238       -3.3648907986       -6.7800553110
 C       -18.1108144847       -1.5692138831       -3.9126188670
 C       -16.1632075158       -0.2001790580       -3.1410701531
 C       -19.6534341869       -2.1620836099        3.5167566369
 C       -21.5390966072       -0.8129999046        2.4253597120
 C       -17.0712698029        4.6486102887        3.9610309809
 C       -16.3651649369        4.7016192919        1.5174972680
 H       -14.6842157231        2.3133117029        4.7183380935
 H       -14.5052959201        4.0324122985        4.3428292592
 H       -13.5176902022        2.7182049042        3.6055736678
 H       -19.9819855644        3.6254067201        3.6109079648
 H       -18.8655128445        2.8021723624        4.4782905191
 H       -20.7339387869        1.9170481657        2.1754442478
 H       -20.9890404362        1.7107184616        3.8568031866
 H       -19.8637609833       -3.1224554850        0.5517423645
 H       -18.2892027399       -2.7651343599        1.0884021031
 H       -19.5051451049       -1.7156358959       -1.5441556222
 H       -18.6511697641       -3.2750371333       -1.4057925118
 H       -14.0325778507       -2.2029692994       -2.9160938895
 H       -14.6276388568       -1.8998640683       -4.6138457623
 H       -14.4401021296       -4.5229957717       -4.8184642213
 H       -14.0860746730       -4.6457738477       -3.0846361276
 H        -9.2261065667       -2.6873373815       -6.6059049600
 H        -8.9927062146       -2.9302664935       -4.9707234534
 H        -8.0345290873       -0.8044500366       -4.9077291899
 H        -9.6705176589       -0.1668758275       -5.2523727871
 H        -5.3647447771        1.5631559596       -8.8700514178
 H        -6.1000738279        0.1362253121       -9.4137506653
 H        -3.9057027795       -0.4449091325       -7.5699283986
 H        -3.4772406965        0.6833813599       -8.9703013269
 H        -2.1875489764       -2.3539152456      -11.6155106107
 H        -0.5847798421       -2.9480967569      -11.2902396272
 H         0.4238219114       -1.2869420594      -12.4893848246
 H        -0.3832559718       -0.0372627360      -11.8622529855
 H         0.8206497184        2.2474396087      -15.3841659524
 H        -0.4452185865        1.4815598577      -16.5505628529
 H         0.1928481092       -0.6450303669      -16.4420710539
 H         0.9675162388       -0.4148690599      -14.8298190027
 H         5.0982685723       -0.1434794541      -15.0554173532
 H         4.6403565149        1.3485049741      -15.7274644773
 H         7.1361131706        0.8951595827      -15.1758699268
 H         6.9088395197        1.9808764354      -16.5458530997
 H        11.0704770609       -0.6776462300      -17.6641381126
 H        11.0726789073        0.4799518083      -18.7753766323
 H        12.6695898743       -1.0316382106      -19.7007024471
 H        11.1759637823       -1.2864019407      -20.6800757220
 H        10.2657553442       -4.5296400381      -22.2523568457
 H         9.6811194386       -3.6634441290      -20.7875280461
 H         9.3839110319       -6.8240266394      -21.2606374022
 H         8.1833091995       -5.7627369189      -21.9379224426
 H         9.9386419276       -6.5581685587      -17.8146542870
 H         9.6358302221       -8.3630965943      -17.5365529085
 H        10.8276845970       -6.9362083679      -15.6665850632
 H         9.4330078797       -7.6113205902      -15.0022417678
 H         5.4602399666       -5.9599181764      -14.2235178371
 H         5.0370144435       -4.9200573633      -15.7338101613
 H         5.2789730956       -4.2999721515      -13.9335594160
 H         7.5491440809       -7.2489761327      -13.8323628971
 H         7.1531316158       -6.1411175084      -12.6059958821
 H         8.8657317656       -6.6458250979      -12.7566063655
 H         8.9299011593       -3.0729113782      -14.2595132001
 H         9.4439115989       -4.1473876080      -12.7956815661
 H         7.8708954558       -3.5008647741      -12.9194417719
 H         5.4184391090       -7.2602643634      -18.1824731524
 H         5.2909850577       -6.7522439284      -19.8593141278
 H         5.7870946712       -5.5671031957      -18.6239242750
 H         7.2713371265       -9.0671433310      -19.2309652067
 H         8.6102915209       -8.3030026049      -20.1898254051
 H         6.8920265799       -8.2475651992      -20.8027562975
 H        12.1460193574       -2.8590843487      -21.9599615284
 H        13.4503191385       -4.1310313977      -21.9591984739
 H        13.7363662188       -2.6624731465      -21.1201814199
 H        13.6619081287       -5.5620358227      -19.6379216693
 H        13.3095550574       -4.6269023612      -18.2190362416
 H        14.5596884149       -4.0232290274      -19.3739162161
 H         6.5438576234        1.6070516792      -19.3557372146
 H         7.0863547871       -0.1346983980      -20.1076542718
 H         7.8684471357        1.3914790048      -20.5052009326
 H         9.5201437647        2.1283483369      -19.0500233565
 H         9.9431347341        1.6681708086      -17.3815322518
 H         8.6319382819        2.8158307970      -17.7214558656
 H         2.4249384551       -2.4690661306      -15.8070766387
 H         3.7983215837       -1.5334112977      -14.9864386833
 H         4.0689497062       -2.5090443663      -16.3901367664
 H         1.5941734581       -1.7569662433      -17.9981323829
 H         3.3319613431       -1.8524053710      -18.6630926157
 H         2.4408643186       -0.4067318877      -18.8902250830
 H        -3.9299950217       -0.4363932757      -15.0081814156
 H        -2.5010841075       -0.6087631309      -16.1614857156
 H        -3.3228505532        0.9362228726      -15.9715578300
 H        -4.0252624944        1.1615443633      -13.4118887456
 H        -2.5291362234        2.0683796852      -12.8825072860
 H        -3.0824565447        0.4995040129      -12.1014413581
 H        -0.9338522680       -2.1344593873       -7.4389497890
 H        -2.6073889220       -2.1031497912       -6.8784386120
 H        -1.8368649420       -0.6149974114       -7.4733959788
 H        -3.1789700744       -3.8413290278       -8.1747855739
 H        -1.7564026563       -4.1794143909       -9.2299083179
 H        -3.2636547760       -3.7741803367      -10.0164059606
 H        -7.2197956141        2.6932509069       -8.1395981221
 H        -9.0298875342        2.3104110034       -8.1500797920
 H        -7.9072073004        1.4177030287       -9.2122547247
 H        -7.1845421517        1.3264129456       -5.1297921804
 H        -8.8548314950        1.6638309546       -5.4614187377
 H        -7.6432817963        2.7511839173       -5.9308523726
 H       -10.1042291077       -4.5221789800       -6.5423713451
 H       -11.5515655219       -5.3995925950       -6.8893956741
 H       -10.9665181593       -5.5731734446       -5.2502363674
 H       -13.6480419867       -4.1145355936       -6.7913539152
 H       -12.4609470432       -3.1109902726       -7.7247033852
 H       -13.3804786000       -2.4422477332       -6.4731697761
 H       -18.7715702576       -0.7254493870       -3.6363147995
 H       -18.5819914681       -2.5980574428       -3.8704205634
 H       -17.7579712443       -1.3925452155       -4.9681664014
 H       -16.7219794146        0.7167670693       -2.8196715135
 H       -15.9491664081       -0.0369496567       -4.1941834137
 H       -15.2727872454       -0.1850787112       -2.5540131380
 H       -20.0828697118       -2.0001081349        4.4730036846
 H       -18.5939666950       -2.2122132760        3.5525776129
 H       -19.9143232070       -3.1456238231        3.1177683068
 H       -22.1298997877       -0.7822635042        3.3157105705
 H       -21.9109941317       -1.4909864145        1.7792688058
 H       -21.7904730961        0.0939669194        1.8943302040
 H       -17.3555549287        4.1058140482        4.8277574312
 H       -17.8055798118        5.4575676804        3.8071727391
 H       -16.1813512921        5.1302575653        4.1486081758
 H       -15.6550301302        5.3618025193        1.9390942219
 H       -17.2453774774        5.3858024241        1.3184646995
 H       -16.0180179527        4.2690299446        0.5418968013
 Na      -17.1569577974        0.7981544378        0.8525074702
 Na        8.8256401197       -3.1120182082      -17.6925496300
