232

 C       -14.6300199060        3.1113651085        4.0883839027
 C       -15.6175218413        2.8282207436        2.9548153403
 O       -15.4771251068        1.8981090607        2.2128176515
 C       -16.8012799660        3.9182156774        2.7283213917
 C       -18.1465334527        3.0408802599        2.4366980862
 O       -18.2986193132        2.5909725259        1.3333736964
 C       -19.1594156252        2.9349565008        3.5254645084
 C       -20.0697750141        1.6340255141        3.3188028650
 C       -19.3039982701        0.4162470771        3.0268930564
 O       -18.1421534119        0.3908747387        3.1601500734
 C       -20.0337740852       -0.9040026292        2.4672901479
 C       -19.5853256098       -0.9487720397        0.8980003798
 O       -19.4351251910        0.0124613329        0.2189665149
 C       -19.0678346703       -2.3062901006        0.4027713793
 C       -18.6612060172       -2.2390234543       -1.0864256991
 C       -17.5262771144       -1.3970204800       -1.4581623093
 O       -16.7191331596       -0.9643314654       -0.6195119879
 C       -17.0422581241       -1.3124124075       -3.0275911010
 C       -16.1075475755       -2.6958840886       -3.1142286878
 O       -16.6297870991       -3.7294863549       -2.8396886491
 C       -14.6455904422       -2.5542114665       -3.5056439650
 C       -13.9996922980       -3.9068852573       -4.0287238202
 C       -12.4142623470       -3.7759087434       -4.2380212716
 O       -11.6717634015       -3.7060077837       -3.2341569191
 C       -11.9190755545       -3.6228022764       -5.7156719657
 C       -11.2303111279       -2.1963738480       -5.6286186774
 O       -11.8276388166       -1.2033498114       -5.4563030602
 C        -9.6805620531       -2.3006083695       -5.5543106213
 C        -9.0589341172       -0.8853015857       -5.5162497009
 C        -8.5756195771       -0.3449491688       -6.8380247506
 O        -8.8204295666       -0.8371364973       -7.9116593494
 C        -7.6298895139        0.8767028271       -6.9305555018
 C        -6.0733164255        0.4302831349       -7.1832354135
 O        -5.5247539479       -0.0911901093       -6.2506704976
 C        -5.4490331794        0.2941508929       -8.5436194990
 C        -3.9193426962       -0.2258222027       -8.3403563551
 C        -3.5431815648       -1.3304945885       -9.3350840605
 O        -4.2017112356       -1.6292675148      -10.3343954144
 C        -2.1356232279       -2.2212763829       -9.0645616364
 C        -1.1181837146       -1.5476453765      -10.0085098336
 O        -0.4684079407       -0.5731434214       -9.6401504821
 C        -0.9467252736       -2.0869106952      -11.5117028841
 C        -0.5837380086       -0.9812709701      -12.5305099233
 C        -1.5110560544       -0.9790016483      -13.7757756997
 O        -1.7658151908       -2.0086041555      -14.3909334569
 C        -2.2071982202        0.2789875114      -14.1767964358
 C        -1.0150264940        1.4487763004      -14.5092430206
 O        -0.9545072967        2.4571738871      -13.7993167125
 C        -0.2667608779        1.3371089655      -15.7730030692
 C         0.8674012700        0.2235817918      -15.7473587271
 C         2.0952969207        0.4946506151      -16.6557253700
 O         2.4614673975        1.5863529080      -16.9602294696
 C         2.9455061663       -0.7300271993      -16.9470826106
 C         4.4209356100       -0.0627171900      -17.3747446431
 O         4.7924973729        0.1480080390      -18.5181857368
 C         5.3310071931        0.4782525171      -16.2679731687
 C         6.7470449163        0.9800444691      -16.4948415406
 C         7.6024195994       -0.1153878908      -17.1602753923
 O         7.5026410305       -1.2800630929      -16.8957024301
 C         8.4902831448        0.5271956066      -18.3229370280
 C         9.3664539747       -0.5531470505      -18.9069793251
 O         8.9236272112       -1.5953798429      -19.3433042382
 C        10.8806154437       -0.3606215146      -18.8116024596
 C        11.6127116041       -1.3409368236      -19.7820173662
 C        11.6141164355       -2.7990426962      -19.3418424169
 O        11.2161092674       -3.2243905662      -18.2811161459
 C        12.3463015596       -3.8926033657      -20.2810838677
 C        11.3899755064       -5.1377813224      -20.4697768620
 O        11.6490641796       -6.2411699508      -20.0448164328
 C         9.9696903775       -4.8788680955      -21.1773218493
 C         8.9400497815       -5.9176068412      -20.8174713262
 C         8.0752109624       -5.7749886340      -19.5814277766
 O         7.9551438842       -4.7555341495      -18.8883713398
 C         7.3546164036       -6.9542720230      -18.9240117379
 C         7.9374395663       -7.0800548281      -17.5235892199
 O         7.1603603245       -7.1548910482      -16.6038393936
 C         9.5148051247       -6.8609532987      -17.2445460315
 C         9.7872222392       -6.7678355969      -15.7247958747
 C         9.2512649225       -5.2982277614      -15.3545823524
 O         9.9625943414       -4.3980705492      -15.7646671016
 C         8.1067681778       -5.1236807988      -14.2903632799
 C         6.8472359123       -4.8420817759      -15.1687700099
 O         6.9564315784       -4.2833091210      -16.3121736792
 C         5.4821843998       -5.0964741114      -14.5281495822
 C         7.9231173250       -6.1997840642      -13.2922167024
 C         8.4074023529       -3.7954735440      -13.5572553132
 C         5.8107600598       -6.4734256820      -18.8550389535
 C         7.4862089322       -8.3277008548      -19.6365632486
 C        12.8999333109       -3.3924753840      -21.5936303020
 C        13.4906957232       -4.5634557724      -19.3594005168
 C         7.4103473098        0.9816543309      -19.4024682885
 C         9.2553635521        1.8125304090      -17.7022145887
 C         3.2120787255       -1.6254019515      -15.7473780799
 C         2.4417355394       -1.4716062530      -18.2518805907
 C        -3.0797192502        0.0479211223      -15.4634411604
 C        -3.0672649266        0.6203226965      -12.8496857647
 C        -1.8177928297       -2.0609180415       -7.5333643643
 C        -2.4424583714       -3.6330751843       -9.4085503877
 C        -8.2473645879        1.5421452352       -8.2165656650
 C        -7.6272200202        1.8037611952       -5.7267506493
 C       -10.8704984069       -4.7792214430       -5.9855130825
 C       -12.9398320883       -3.6156798173       -6.8022865009
 C       -18.3096085723       -1.4331125823       -3.9730421380
 C       -16.2404626521       -0.0971258822       -3.3913231313
 C       -19.6128641973       -2.0560198377        3.3837305441
 C       -21.5877419364       -0.8596539213        2.4956275187
 C       -16.9583396314        4.8202392190        3.8415043113
 C       -16.4081183258        4.5295517568        1.4191847488
 H       -15.0535955024        2.8226938488        5.0645957694
 H       -14.4438443437        4.2105815844        4.1897892107
 H       -13.7297971099        2.5033497970        4.0426808122
 H       -19.7491595797        3.8345166638        3.7264698569
 H       -18.6750907870        2.8734824662        4.4421386503
 H       -20.7207235911        1.7473980610        2.4674493248
 H       -20.8441569212        1.5565610367        4.0888100416
 H       -19.8938688441       -3.0219983742        0.4993959224
 H       -18.3311163812       -2.7933642769        0.9861541424
 H       -19.5620503942       -1.9170996431       -1.6129604728
 H       -18.3809703302       -3.2900518060       -1.3442466084
 H       -14.1235228809       -2.2838304094       -2.5940950641
 H       -14.5302307768       -1.7920747998       -4.2232805503
 H       -14.4395847408       -4.3366091860       -5.0121248692
 H       -14.1374731866       -4.6480396077       -3.2812413494
 H        -9.3278068117       -2.7804737348       -6.5041932895
 H        -9.3106503673       -2.9431492599       -4.7258802773
 H        -8.0985476450       -0.8073420910       -4.9367863231
 H        -9.8594607616       -0.1942485695       -5.1219236404
 H        -5.5963037351        1.1827328494       -9.1563434917
 H        -6.0985374446       -0.4396719575       -9.0486035070
 H        -3.7767980649       -0.6045668184       -7.3418190916
 H        -3.2904818689        0.6001613102       -8.6054797071
 H        -1.7968285219       -2.7111251319      -11.8122073671
 H        -0.0698213193       -2.7008696743      -11.4091153508
 H         0.4643784825       -1.0313801609      -12.8114234608
 H        -0.4913015418        0.0800578408      -12.0575959437
 H         0.1034592340        2.2630579124      -15.9439721096
 H        -0.9605983262        1.0618696590      -16.5896538816
 H         0.4643556243       -0.7493034012      -16.0996194096
 H         1.1352329076        0.0118486844      -14.7093263205
 H         5.2453369671       -0.3077123046      -15.5103139194
 H         4.8699259171        1.3103379238      -15.7760352153
 H         7.1789934770        1.4425770607      -15.6336350663
 H         6.7989514367        1.6914364412      -17.2925275310
 H        11.2422751159       -0.5399212539      -17.7499310544
 H        11.3089209649        0.6723245462      -18.9272337939
 H        12.6297580417       -1.0088006113      -19.7899353935
 H        11.0896134094       -1.2767696934      -20.7709135305
 H        10.1055847226       -5.0415589965      -22.2243819784
 H         9.6131217912       -3.9035990133      -21.0873817972
 H         9.4387285140       -6.9115979861      -20.7448040760
 H         8.2906102184       -6.0656829219      -21.6784982980
 H         9.8003354632       -5.9120415109      -17.6929885908
 H        10.1731736411       -7.6589236201      -17.4965343490
 H        10.9025663879       -6.8515054387      -15.4884351531
 H         9.2145931403       -7.5482307819      -15.1560952012
 H         5.2119935502       -6.1822463009      -14.4797439143
 H         4.7239455331       -4.5898662936      -14.9944857713
 H         5.6218465684       -4.8408032214      -13.5267494098
 H         7.6609317456       -7.1730052544      -13.7586352557
 H         7.0292420182       -5.9073044724      -12.6723103934
 H         8.7606693762       -6.3292524912      -12.6847686592
 H         8.3646817380       -2.9333367545      -14.2056230640
 H         9.3533010991       -3.9080308090      -13.0138379885
 H         7.6832957188       -3.6555323630      -12.7941208003
 H         5.2098579713       -7.3782349062      -18.6347943237
 H         5.4271821189       -6.2104852577      -19.8303185832
 H         5.7083020821       -5.6937938460      -18.1100489707
 H         6.8605812336       -8.9997215972      -19.0733646598
 H         8.4756430426       -8.6393073939      -19.6764374589
 H         7.1518685165       -8.3004198263      -20.5882837062
 H        12.4467466178       -2.4504766836      -21.7781535927
 H        12.5456018864       -4.1536943230      -22.3796098807
 H        14.0128322699       -3.4153022920      -21.5335711785
 H        14.0594184142       -5.2181653054      -19.9766675124
 H        13.1015382848       -5.0076094824      -18.4378466802
 H        14.1422345997       -3.7608513645      -19.0868356863
 H         6.8385210620        1.8019182296      -19.0518591201
 H         6.9550761259        0.1168705793      -19.7295979984
 H         7.9516535815        1.3403152764      -20.2447267184
 H        10.0818531881        2.2671312433      -18.3883645794
 H         9.5865883021        1.5193387421      -16.6849938940
 H         8.6140343875        2.6668591742      -17.6827269047
 H         2.3962992953       -2.3140898536      -15.6564786370
 H         3.2805077159       -1.0145536165      -14.8595194577
 H         4.1811910359       -2.1155837377      -15.9464230595
 H         2.3843063280       -2.4693531457      -17.9005565104
 H         3.1921679311       -1.2437270106      -19.0345431954
 H         1.5152826209       -1.1131801207      -18.7050244103
 H        -3.7266798559       -0.7758205064      -15.2227945975
 H        -2.4387271463       -0.1590050815      -16.2917635181
 H        -3.5758926740        0.9906166468      -15.6761971570
 H        -4.0790870532        0.9808730950      -13.1195114694
 H        -2.5750925184        1.3823165913      -12.2240818582
 H        -3.1852866023       -0.2453602569      -12.2846642031
 H        -0.9584586428       -2.7217710072       -7.4369304717
 H        -2.6902777883       -2.3891324996       -6.9493276599
 H        -1.5420990737       -1.0383758632       -7.3126967744
 H        -3.2689857863       -4.0648269335       -8.9429250215
 H        -1.6067032118       -4.2468198044       -9.1415843593
 H        -2.5517633273       -3.6993108672      -10.4067155106
 H        -7.7193878492        2.5234490221       -8.2442761677
 H        -9.2680919738        1.6601384303       -7.9339515664
 H        -8.0650938522        0.9649307685       -9.0978118145
 H        -7.4096629238        1.4232061906       -4.7704681763
 H        -8.5540779086        2.3170690472       -5.5470010894
 H        -6.8892833282        2.5551440282       -5.9384301917
 H       -10.7033417838       -4.9667054478       -7.0385639353
 H       -11.3300502740       -5.7101071322       -5.5940532468
 H       -10.0620703922       -4.6636070125       -5.3317800789
 H       -13.1624327859       -4.7158869955       -6.9924141775
 H       -12.5682120294       -3.0020895944       -7.6137387948
 H       -13.8731689453       -3.1391224154       -6.4598158118
 H       -18.9588191266       -0.6291861189       -3.6844245347
 H       -18.7850826101       -2.4097670207       -3.8435037112
 H       -18.0748438395       -1.2399859950       -5.0118827949
 H       -16.9207327708        0.7463609769       -3.3757271408
 H       -15.7054702807        0.0027230414       -4.3127674143
 H       -15.6381095789        0.1605548641       -2.5106649140
 H       -19.8514932535       -1.7727563081        4.4763909015
 H       -18.5504217248       -2.3010051825        3.3308920262
 H       -20.0601153141       -2.9771517762        3.0990174827
 H       -21.9167218716       -0.4574512893        3.4752420341
 H       -22.0788315044       -1.9101372506        2.2687329948
 H       -22.1550485993       -0.2871455546        1.7303712051
 H       -16.8311461187        4.3317316929        4.8211094445
 H       -17.9764850601        5.1977487677        3.9223682420
 H       -16.3768032047        5.7818291301        3.6561897454
 H       -15.5233749674        5.1900084223        1.5909311934
 H       -17.1075782585        5.0576653577        0.8527676823
 H       -16.0648629153        3.7143332614        0.8349722428
 Na      -16.9797268040        0.7264630991        0.8671073850
 Na        8.8916154340       -3.2676058195      -17.4916996517
