155

 C        -2.8569231035       -6.5018806112       -8.3703892349
 C        -3.1133600512       -5.1210285981       -7.5555991597
 C        -3.6086594591       -3.9088705212       -8.5235615009
 C        -4.0338544269       -2.5909899727       -7.5672556722
 C        -2.9380407506       -1.8330727602       -6.7884370666
 C        -2.5587847266       -3.4864644033       -9.5692301598
 C        -4.8661619562       -4.4969050642       -9.2794895817
 O        -3.1170367565       -5.0660234435       -6.3287980533
 O        -5.1259142582       -2.1160767226       -7.6263381908
 C        -2.8112862372       -0.3302272874       -7.1462162379
 C        -1.5232263026        0.2605341954       -6.5474603046
 C        -1.0735586850        1.7386166813       -7.0534019608
 C        -0.7254177457        2.5066771240       -5.5783651339
 C        -1.8855753380        3.1243993296       -4.6964809596
 O        -0.7866566809       -0.4041755029       -5.8340657098
 O         0.4212510204        2.5601445788       -5.2194161159
 C         0.2527150837        1.4693018368       -7.8268982394
 C        -2.0422200463        2.5241196417       -8.0478638036
 C        -1.6874445228        3.2484495298       -3.1974622375
 C        -1.9567496761        1.9718252197       -2.4077574002
 C        -1.1250424753        1.8086230711       -1.0993473367
 C         0.4506268891        1.7926498393       -1.2289157277
 C         1.0510788724        0.7636817651       -2.2921849142
 C        -1.4259420012        3.0673059176       -0.1652571547
 C        -1.4666959326        0.4997194373       -0.3710316510
 O        -2.6373701981        0.9727347587       -2.7473606648
 O         1.0907114549        2.6515417266       -0.6672730374
 C         2.4599949031        0.1872081533       -1.8965506608
 C         2.7270844426        0.0110238214       -0.3870548722
 C         4.0471946725        0.3432751703        0.3633183882
 C         3.6931705485        1.5124669744        1.4794426948
 C         4.1923285895        2.9877611977        1.2375640459
 O         1.8372147311       -0.5686036763        0.2078265910
 O         3.1221991345        1.2165732193        2.5127100217
 C         4.6598349020       -0.8945736102        1.1405541276
 C         5.2043493071        0.8480862978       -0.5292784807
 C         3.9057884376        3.9761089627        2.4106237014
 C         2.6417654764        4.8664937608        2.1129636301
 C         2.1433314763        5.9178304578        3.2185555123
 C         0.7702781176        5.3356990952        3.8687681580
 C         0.8680653848        4.1605347285        4.8072591246
 C         3.1859995253        6.0360798288        4.3242020619
 C         1.8034631039        7.3284884234        2.6099295666
 O         2.1419598836        4.7827313569        0.9927320215
 O        -0.2694920554        5.9122921345        3.6661467174
 C        -0.2755622336        4.0755647888        5.8206625184
 C        -0.3895576758        2.6241600476        6.3492461956
 C        -1.1644087783        1.6440130704        5.3338152106
 C        -0.2844202198        0.3324092326        5.1464739805
 C        -0.5287111018       -1.0176231583        5.8164025938
 O         0.0500161122        2.2325579180        7.3765777861
 O         0.5977751292        0.3808841320        4.2936099145
 C        -2.4970092194        1.3928359848        6.1557491255
 C        -1.4532739255        2.1154125442        3.9296840806
 C         0.7047039240       -1.5441279444        6.4109729163
 C         1.5691473787       -2.1455478437        5.2383079151
 C         1.1531538494       -3.5162114180        4.6672501770
 C        -0.0035207543       -3.2704209220        3.5778656018
 C        -1.2449138764       -4.1661964081        3.6149244202
 C         2.2730570961       -4.1869814147        3.9624364355
 C         0.5806214323       -4.4196057393        5.8211463916
 O         2.4133067040       -1.4650437528        4.6969955971
 O         0.0452929276       -2.3632487211        2.7526374369
 C        -2.2319551609       -3.8640473139        2.4635342859
 C        -3.0014840951       -5.0866882850        2.0343913154
 C        -2.2861312089       -5.9751300867        0.9631563308
 C        -1.6622494102       -5.1714388085       -0.2542481611
 C        -2.1829313352       -5.2191314625       -1.6196850060
 O        -4.1162318674       -5.3414582670        2.4995495125
 O        -0.7209566745       -4.4708420920       -0.0285099723
 C        -1.1008510355       -6.7681850266        1.6899000281
 C        -3.3176577970       -7.0381536886        0.3994804960
 H        -3.7608914540       -7.0424194709       -8.4910751642
 H        -2.5176164085       -6.2375213659       -9.3938982505
 H        -2.2082432794       -7.1279222218       -7.8070833576
 H        -3.2652472208       -1.9361990432       -5.7973586647
 H        -1.9834496545       -2.3611073809       -6.9835042474
 H        -2.2530097046       -4.3441160615      -10.0650665666
 H        -1.6245220303       -3.2178632784       -9.0399334972
 H        -2.7091720470       -2.6367308309      -10.1591358613
 H        -5.1693199667       -3.7347250547      -10.0036026360
 H        -4.4801698527       -5.3616796249       -9.7802742342
 H        -5.6129231094       -4.6762178046       -8.5679866550
 H        -2.7282008712       -0.0755196030       -8.2688532524
 H        -3.6243056307        0.3610436220       -6.6798986619
 H        -2.2673358680        3.9912561780       -5.1476169643
 H        -2.6628963419        2.3684595551       -4.9831446213
 H         0.8118624388        2.3933376643       -7.9701374803
 H         0.1756420256        1.0122246691       -8.7804497897
 H         0.8472528921        0.8877245111       -7.1661490211
 H        -2.6520899658        1.7880246716       -8.5570508170
 H        -2.5789064342        3.2873207538       -7.4576154742
 H        -1.4810482084        3.0209358609       -8.8206536332
 H        -2.3563313338        3.9664296360       -2.7019382165
 H        -0.6189245945        3.5587836430       -3.0602283540
 H         0.3045868111        0.0138170451       -2.5369315337
 H         1.3267136329        1.3229101217       -3.2344456628
 H        -2.4889701494        3.3461980479       -0.2412592751
 H        -0.8456168578        3.8831093005       -0.4226407473
 H        -1.1716215239        2.7730908212        0.9091463131
 H        -2.5272884944        0.3816627616       -0.3280771345
 H        -1.1969771515       -0.4220123465       -0.9007776475
 H        -0.9927427566        0.4743800740        0.6328769377
 H         2.7769967050       -0.7776604274       -2.3099815476
 H         3.2569463930        0.8549824970       -2.3944844690
 H         5.3083561406        2.9870890329        1.1383330890
 H         3.6797729023        3.3442744581        0.2571813030
 H         5.5590832520       -0.5131621711        1.6814895146
 H         5.0441463613       -1.6574053803        0.5006967382
 H         3.8788404997       -1.4889746065        1.6519347006
 H         6.1924968946        0.8498375143        0.0270259885
 H         5.3589333017        0.2249940125       -1.3984203259
 H         5.0853219704        1.7925172103       -0.9945146005
 H         4.7608452879        4.4500583068        2.8487129043
 H         3.5356728774        3.3179940161        3.2827579649
 H         0.8563305316        3.2875388772        4.1720670622
 H         1.7375572091        4.2578606268        5.3744709883
 H         3.5521484354        5.0532281397        4.6597807696
 H         2.6678738713        6.5255613908        5.1443814109
 H         4.0720487910        6.6002874235        4.1550937428
 H         2.6969554090        7.8957583679        2.4464921265
 H         1.2917102306        7.1204845524        1.6649225580
 H         1.1110652811        7.9350679668        3.1417318709
 H        -0.1745321372        4.8214885185        6.6161506010
 H        -1.1424190949        4.3187256020        5.2554104470
 H        -1.4560008248       -0.9624150741        6.4654553977
 H        -0.8384330130       -1.7031686272        5.0178127821
 H        -2.8859631899        2.3513852749        6.1476023377
 H        -2.1928399533        0.9957116908        7.0792683440
 H        -3.0935653160        0.6983520878        5.5813169696
 H        -0.5241085206        2.3461743808        3.3754722668
 H        -2.0672003357        1.4098059485        3.4101883631
 H        -1.9371713259        3.0290413525        3.9700627442
 H         0.4098924878       -2.3008398574        7.2148210969
 H         1.2837157305       -0.8003048009        6.9276565087
 H        -0.8694540983       -5.1687295485        3.6543938597
 H        -1.6458804748       -3.7756351091        4.6026538342
 H         2.0715325242       -5.2745637517        3.7364919859
 H         3.1625078219       -4.1549812989        4.5661983711
 H         2.3548318207       -3.6585826560        2.9529692240
 H         1.3029328201       -4.4664413396        6.7164624393
 H        -0.3598913620       -4.0549647245        6.1230123110
 H         0.2901192835       -5.4749966459        5.5595163612
 H        -2.9633784148       -3.3054432044        2.9845744832
 H        -1.7338057659       -3.4172839455        1.5463357839
 H        -1.4868626137       -5.8727157612       -2.1080713857
 H        -3.2219183930       -5.5529875761       -1.7405624935
 H        -2.1613011025       -4.1513656929       -1.9618173161
 H        -1.3224061972       -6.9369369448        2.6997689080
 H        -0.2155989553       -6.0997658072        1.5160778358
 H        -0.9749398550       -7.6450588374        0.9947861460
 H        -2.9756974730       -7.5551554464       -0.4653147316
 H        -3.5420678636       -7.8356931514        1.0624654955
 H        -4.1689248196       -6.5949456460       -0.0553263756
 Na        1.7688838545       -0.7947966668        2.6703129223
