155

 C        -2.6280881297       -6.3961895587       -8.3850629940
 C        -2.9533646649       -5.0352030848       -7.6823956598
 C        -3.5349652269       -3.8556974539       -8.6125942944
 C        -4.0748466998       -2.5606398035       -7.7780092848
 C        -2.9059696252       -1.7636665936       -6.8850766466
 C        -2.4509934317       -3.2629211410       -9.6308095459
 C        -4.8889694738       -4.2966487770       -9.3480653401
 O        -2.7991543594       -4.8048286604       -6.4875777230
 O        -5.1717759481       -2.0424642641       -7.9943223829
 C        -2.9256465476       -0.3020024624       -7.2196897214
 C        -1.5895181011        0.3341019443       -6.5642765989
 C        -0.9506322540        1.7291972592       -7.0130554458
 C        -0.7498903830        2.4942216561       -5.6653700718
 C        -2.0344670103        2.9709585614       -4.9892246617
 O        -0.9824021188       -0.2017176429       -5.6937328662
 O         0.3403123039        2.6003114138       -5.1628365259
 C         0.4450361980        1.5203160578       -7.6293753064
 C        -1.9556605219        2.6275825721       -7.9016019317
 C        -1.8872374661        3.1887600102       -3.4595506466
 C        -1.9407088008        1.8031732843       -2.6696474030
 C        -1.1161089939        1.7634509060       -1.1916951320
 C         0.4858614459        1.6746390988       -1.2813609768
 C         1.1078806131        0.6774595129       -2.2978123814
 C        -1.5795762392        2.9184598641       -0.2781055248
 C        -1.5204740312        0.4047114027       -0.5045650267
 O        -2.7057056301        0.9699723760       -2.9395769734
 O         1.2071219585        2.3754366214       -0.5976666346
 C         2.5142261239        0.5335889030       -1.7854693754
 C         2.6905127734        0.1419222200       -0.3109313805
 C         4.0425542451        0.5134168746        0.3594660882
 C         3.7432592577        1.5499910725        1.5457566631
 C         4.3260507022        2.9793909865        1.3150272194
 O         1.9278378896       -0.5328544119        0.3700979540
 O         3.0888384237        1.2405694346        2.5295637440
 C         4.5701522726       -0.7638954852        1.0771776530
 C         5.1067694711        0.9797752497       -0.5510101230
 C         3.8310327611        3.8564480231        2.5168132587
 C         2.6062235904        4.8226725086        2.1354391863
 C         2.0266030220        5.8207337900        3.1723126920
 C         0.6505454971        5.2243306555        3.7476235031
 C         0.8152676912        4.1059641967        4.7903719398
 C         3.0012118366        6.2160947736        4.3381055462
 C         1.8233453539        7.1041652858        2.3082664965
 O         1.9977140962        4.7522973198        1.1065803841
 O        -0.3865107869        5.5546575178        3.2484361600
 C        -0.1860888975        3.9217658393        5.9694257403
 C        -0.5784900139        2.4741423722        6.4056049167
 C        -1.4937476320        1.5194627002        5.4997718975
 C        -0.5299089263        0.3702996965        5.1097999752
 C        -0.6400923763       -0.9271348570        5.9739401791
 O        -0.2253505659        2.0357905709        7.4966320354
 O         0.2354956367        0.4101488696        4.2003458885
 C        -2.6887206543        1.0644636046        6.4126648848
 C        -2.0562563068        2.2170818383        4.3099209713
 C         0.7546534339       -1.5150569287        6.4143992806
 C         1.5953593741       -2.1393049929        5.3965441229
 C         1.2445524554       -3.6241305376        4.7953832822
 C         0.1427233850       -3.2759093767        3.7505696317
 C        -1.1742134255       -4.0869099107        3.7623168187
 C         2.5146523934       -4.1290858638        3.9742191244
 C         0.8561204494       -4.6884980215        5.8003155814
 O         2.5899543153       -1.5791424468        4.9049037045
 O         0.4005556248       -2.4748370386        2.8868490521
 C        -2.1469771480       -3.7559112667        2.6084359792
 C        -2.8276088494       -5.0657223862        1.9061425144
 C        -2.0934648468       -6.0771421264        1.0143122713
 C        -1.6815962149       -5.1176392758       -0.1310079961
 C        -2.3560079388       -5.2710700814       -1.5108846995
 O        -3.9820868320       -5.2147926336        2.1843612143
 O        -0.9093676810       -4.1664483836        0.0452210786
 C        -0.9211018760       -6.8314372827        1.5886513054
 C        -3.1156220334       -7.1040030938        0.6483463472
 H        -3.1451398203       -7.2201913428       -7.8439021459
 H        -3.0260122258       -6.3292936258       -9.3983716153
 H        -1.5702518271       -6.5941227396       -8.2650076292
 H        -3.1975727392       -2.0010292482       -5.8010847293
 H        -1.9353808334       -2.2449457962       -7.0812998332
 H        -2.0829730919       -4.0772121591      -10.3059359275
 H        -1.5634975514       -2.7468434708       -9.2782687991
 H        -2.9943209955       -2.4710422345      -10.1997009049
 H        -5.3315918068       -3.4346815802       -9.7951391872
 H        -4.6971139299       -5.0677446117      -10.1008042129
 H        -5.4626370684       -4.6563135279       -8.4187657638
 H        -2.9072827323       -0.0834168302       -8.2396285686
 H        -3.7114673851        0.2051736905       -6.7540232331
 H        -2.4440729857        3.8894938613       -5.5326265507
 H        -2.7709100156        2.2460937164       -5.2855188946
 H         0.8471347362        2.5446796235       -7.8094612166
 H         0.2785454218        1.1225090145       -8.6733208065
 H         1.2140243426        0.7925173663       -7.1709803053
 H        -1.9168825008        2.3090195517       -8.9469789827
 H        -2.9398447115        2.8153085597       -7.4865055369
 H        -1.4026450879        3.5832588431       -7.9654630625
 H        -2.7738934851        3.7477975547       -3.0867458900
 H        -0.9679786692        3.7318471796       -3.2460509471
 H         0.6017563501       -0.3351990427       -2.4085479168
 H         1.2028638866        1.1039377320       -3.3047953157
 H        -2.6527616164        3.1921544530       -0.5021153117
 H        -0.9720090140        3.8417064872       -0.3833835364
 H        -1.5645936139        2.6147450828        0.6982976641
 H        -2.4833475021        0.4423721056        0.0197251765
 H        -1.6708087467       -0.3730475361       -1.2450628096
 H        -0.7615082929        0.0496008550        0.1635538045
 H         3.1690822776       -0.1570847223       -2.3703671461
 H         3.0344345689        1.4469297914       -1.9611692283
 H         5.4058853959        3.1431047165        1.2833412396
 H         3.8526758761        3.2469489513        0.4024657132
 H         5.1581578364       -0.4436981871        1.8994417516
 H         5.3373422859       -1.2860991853        0.4167636497
 H         3.8033235634       -1.5457164610        1.2657925084
 H         5.9968586687        1.1846743416       -0.0063827312
 H         5.5093475170        0.2452489403       -1.2660148411
 H         4.7917538016        1.8794703574       -1.1540683975
 H         4.6609907023        4.5711780774        2.7299638962
 H         3.8266547902        3.2856913361        3.4048311485
 H         0.8805900176        3.1664809420        4.2293318194
 H         1.7802788638        4.2035384912        5.3383041044
 H         3.4040223647        5.3556678372        4.8200316715
 H         2.6308052644        6.8987570553        5.0617841963
 H         3.9280152195        6.5688546466        3.8149516141
 H         2.7903997840        7.4225509394        1.9456905728
 H         1.1561574151        6.9161439925        1.4708714047
 H         1.4410192333        7.9276311673        2.9145576125
 H         0.2215832839        4.3853475147        6.8662034360
 H        -1.1627866736        4.4845292082        5.8242263056
 H        -1.2455677481       -0.6974691535        6.7853372670
 H        -1.2137119082       -1.6424083117        5.3696369857
 H        -3.2762599223        2.0084857321        6.3885447286
 H        -2.2652914285        0.7865965192        7.4039250738
 H        -3.0492046368        0.1486849236        5.9823548390
 H        -1.2742624479        2.4699027455        3.6526929769
 H        -2.6768234858        1.5353217853        3.6985416450
 H        -2.6164768224        3.1713292493        4.5778061902
 H         0.6768600847       -2.2524744132        7.1671845448
 H         1.3778617509       -0.6999775505        6.7932579688
 H        -0.8233045776       -5.1438239517        3.6256687081
 H        -1.5557369319       -3.9736270171        4.7337764045
 H         2.3462605714       -5.1085555510        3.5488887631
 H         3.2857287825       -4.3600926719        4.7877242852
 H         2.7965092283       -3.4126077578        3.2197320109
 H         1.7402167498       -5.0566154316        6.1913838246
 H         0.1752069406       -4.4451078453        6.6891363635
 H         0.4163911358       -5.4837263486        5.2618055456
 H        -2.9502347517       -3.1917495375        3.1229720539
 H        -1.7131836407       -3.3016673769        1.7431870572
 H        -2.3170143843       -6.3332196009       -1.7918556496
 H        -3.3795794050       -4.9784433352       -1.3499270541
 H        -1.9579845962       -4.5758199045       -2.2026336455
 H        -1.1801683684       -6.9083105454        2.6743611604
 H        -0.0552729612       -6.2493317552        1.4255590092
 H        -0.8669377078       -7.7636310575        1.1124679922
 H        -2.7602434413       -7.8732226281       -0.1094342524
 H        -3.4334119511       -7.7240099059        1.5600530187
 H        -4.0199748495       -6.7173720584        0.0529575756
 Na        2.1485589859       -0.7096418390        2.6551731139
