155

 C        -2.2140166306       -5.9989911557       -8.3446608104
 C        -2.7672259776       -4.6695042785       -7.9568621472
 C        -3.3901416010       -3.6183201548       -8.9665260659
 C        -3.8977125779       -2.3868080170       -8.1624190412
 C        -2.7468695717       -1.6356532195       -7.2400311694
 C        -2.4762338802       -3.0296087044      -10.1149972961
 C        -4.7705817011       -4.2268945029       -9.5777246178
 O        -2.5322510663       -4.3405053819       -6.7796491522
 O        -4.9976389846       -1.8570708716       -8.2658697305
 C        -2.5249315256       -0.2071261112       -7.5304441691
 C        -1.5030331210        0.3570394338       -6.5784422737
 C        -0.9816160287        1.7294327066       -6.8714022555
 C        -0.7926990950        2.6268281120       -5.6236954743
 C        -2.0679281381        3.3311780227       -4.9471648327
 O        -1.1219904189       -0.2525586258       -5.6162582377
 O         0.2764954934        2.6315016491       -5.0536411010
 C         0.4201473623        1.4239763898       -7.3778863753
 C        -1.7887768951        2.5639297682       -7.9129300869
 C        -2.0870410735        3.1488380907       -3.3513618057
 C        -1.9038009294        1.7000003013       -2.8185136788
 C        -1.3923247342        1.5390734048       -1.1773732496
 C         0.1789665475        1.5402655017       -1.2905684855
 C         0.9943548512        0.5016424879       -2.1259715445
 C        -1.9189806168        2.6483713022       -0.2174570717
 C        -2.0482781804        0.2011978851       -0.6032342081
 O        -2.2691138625        0.6898427852       -3.3894133160
 O         0.8419153734        2.3717229919       -0.7026601068
 C         2.4671493430        0.3946213806       -1.6905045181
 C         2.7646626186        0.1936938927       -0.1448786395
 C         4.1666945691        0.6894787122        0.4212400926
 C         3.8924627167        1.6783462197        1.6041129634
 C         4.4929188889        3.0514217493        1.6073712359
 O         2.0060054788       -0.2538804005        0.7025982412
 O         3.1826779935        1.3013330293        2.5210334915
 C         4.8799505697       -0.5853576775        0.9192388687
 C         5.2469298779        1.2967591923       -0.5527784052
 C         3.8331628626        4.0524167543        2.6087905123
 C         2.4740209933        4.6633737596        2.1458924483
 C         1.6783812177        5.5729245493        3.2120410223
 C         0.5383636226        4.6531743839        3.7632550450
 C         0.7351967796        3.5213375899        4.7129894460
 C         2.6353239810        6.0459524161        4.3853988658
 C         1.0864340262        6.7299831907        2.4163392925
 O         2.0126566174        4.4114505022        1.0424848820
 O        -0.6314530013        4.8661536420        3.3716803466
 C        -0.4286098499        3.6038195584        5.6815615877
 C        -0.7479194824        2.3403490222        6.4052690682
 C        -1.7090525960        1.2999493767        5.6602320222
 C        -0.7824587891        0.1415975609        5.1793241566
 C        -0.5440786685       -1.0683988298        6.1086273311
 O        -0.3667663664        2.1154272851        7.5153038049
 O        -0.2295291295        0.2858463321        4.1301718894
 C        -2.6881057457        0.9109423247        6.7676560732
 C        -2.4334048157        1.7397600903        4.3105444711
 C         0.9744194129       -1.2964856599        6.3595088836
 C         1.8290491007       -1.9472189884        5.3574206384
 C         1.5811974947       -3.4513350024        4.9479880970
 C         0.3674266428       -3.3647350519        3.9098875064
 C        -0.9513602156       -4.2600585194        3.8764436118
 C         2.8033374224       -4.0050250487        4.1909459299
 C         1.2915141607       -4.3248397034        6.1270065309
 O         2.8705724327       -1.3712832068        4.9377492980
 O         0.5327867550       -2.6003983328        2.9763995467
 C        -1.8401244066       -3.8259440916        2.7235913703
 C        -2.6139368666       -4.8582738855        2.0447141390
 C        -1.9174588517       -5.8608880063        1.0016496550
 C        -1.7763206496       -5.0678029878       -0.3356022277
 C        -2.6681310221       -5.4272556144       -1.5412504688
 O        -3.8083040630       -4.9808976666        2.2882651988
 O        -0.9467041597       -4.1692399521       -0.3906979952
 C        -0.4415227164       -6.3488066398        1.4477059812
 C        -2.7782326163       -7.1555296794        0.8631826489
 H        -1.5719341486       -6.2410747998       -7.5039823178
 H        -3.0690068961       -6.7496625399       -8.3307413923
 H        -1.6509735630       -5.9868861812       -9.2275417752
 H        -2.9537498724       -1.9170014520       -6.1620616471
 H        -1.8539315359       -2.2418772077       -7.3557278999
 H        -2.2458977164       -3.7578548111      -10.8698849688
 H        -1.5804369987       -2.5140269749       -9.8053744147
 H        -3.1405619607       -2.3744410425      -10.6696866534
 H        -5.1833678946       -3.4033879816      -10.0521487491
 H        -4.6980651613       -5.0735891313      -10.2317289477
 H        -5.2863528339       -4.5378099433       -8.6106218629
 H        -1.9918217658       -0.1273559801       -8.4667166536
 H        -3.4533958599        0.3924051566       -7.5224104066
 H        -2.1102914195        4.4335853611       -5.2671531908
 H        -2.9522909970        2.9064416966       -5.4048515570
 H         0.9478161134        2.2756890019       -7.8142576004
 H         0.3025543774        0.6398265390       -8.0830832407
 H         0.9976051444        0.9360192691       -6.5631478210
 H        -1.6204756634        2.4438834955       -8.9995827942
 H        -2.8067214371        2.3062747220       -7.6929087628
 H        -1.6232636456        3.6402409668       -7.7259843106
 H        -3.0653479495        3.4966587971       -2.8973223943
 H        -1.2979628785        3.6951915345       -2.8166259671
 H         0.5350257890       -0.5660261723       -1.9510451982
 H         0.8987977672        0.5685448377       -3.2405230203
 H        -3.0140245069        2.5095020170       -0.0103387012
 H        -1.7894609863        3.6335921244       -0.4865419176
 H        -1.4774164994        2.5234711417        0.7338709493
 H        -3.1118723447        0.1761432627       -0.8163022131
 H        -1.5330185388       -0.7221259068       -0.9119387873
 H        -2.0653363887        0.1493204366        0.4742707382
 H         2.9353893672       -0.5197719272       -2.2264266510
 H         3.0838951236        1.2416608157       -2.0899260051
 H         5.6022872284        2.8749519858        1.8652417553
 H         4.3752595842        3.5691470053        0.6382351440
 H         5.8558832251       -0.4237425432        1.2075664878
 H         4.7783982499       -1.3282012679        0.0628758453
 H         4.4290576057       -0.8961412257        1.9274972839
 H         6.1280966926        1.6749788024       -0.0526186784
 H         5.6423002762        0.4747984522       -1.1169350148
 H         4.8472554115        2.1404599726       -1.1475298636
 H         4.3691203711        4.9717670460        2.6002844208
 H         3.7429366574        3.7277341746        3.6009072533
 H         0.8030675806        2.6054258565        4.1935587290
 H         1.6715181122        3.5914427945        5.1953843197
 H         3.1269764963        5.2194617162        4.8618182862
 H         2.1576027135        6.5312644566        5.1309060085
 H         3.3796542300        6.7309123265        3.8981400082
 H         1.8413716699        7.3034062975        1.9572459510
 H         0.4002851486        6.3956888010        1.6252053160
 H         0.6205367702        7.3372601855        3.1530479015
 H        -0.3358853157        4.3975186949        6.3798607626
 H        -1.3409044967        3.9303330063        5.1312345360
 H        -0.9744923576       -0.9622033507        7.0634868491
 H        -1.0513098190       -1.9039364762        5.5623705275
 H        -3.2628349394        1.8219807631        6.9552982175
 H        -2.0467024346        0.8157184385        7.6649830185
 H        -3.1936449131        0.0465660954        6.4355484682
 H        -1.7669490301        2.0121849549        3.5885580130
 H        -2.9682823912        0.9226675820        3.8447160996
 H        -3.1897907737        2.4909483690        4.4846678907
 H         1.0172774230       -1.9554648850        7.2019307832
 H         1.4241376655       -0.3688934404        6.6795533212
 H        -0.7307039871       -5.3491231430        3.9493835000
 H        -1.3984180747       -4.0813545666        4.8213135971
 H         2.7164755244       -5.0526722047        3.8274463680
 H         3.8140415053       -3.8862230796        4.7518369222
 H         2.8960157667       -3.2317273815        3.3908531606
 H         1.9283290008       -4.2984741005        6.9820006016
 H         0.3681503434       -3.8363617608        6.5778866837
 H         1.1166373322       -5.3471485034        5.8654222551
 H        -2.5913381411       -3.1411415663        3.1538499242
 H        -1.2096316850       -3.3682188364        1.9448338294
 H        -3.7368063773       -5.4602621981       -1.2649596701
 H        -2.5057192771       -4.5669866604       -2.2073240010
 H        -2.4723906766       -6.3935635072       -1.9853387644
 H        -0.6093521602       -6.6687726504        2.4908123494
 H         0.2653623589       -5.5402964480        1.3205343561
 H        -0.2380227402       -7.2616541980        0.9075973296
 H        -2.3927306733       -7.6953188299       -0.0162330882
 H        -2.8547940617       -7.7772479909        1.7844092906
 H        -3.9157062076       -6.9843975890        0.8643332911
 Na        1.4760576527       -0.4156125002        2.8795504073
