155

 C        -1.5040456859       -5.4587914461       -9.3312421491
 C        -2.4292143312       -4.3574168434       -8.7359800411
 C        -3.0302819280       -3.2339818929       -9.6743527756
 C        -2.9354140340       -1.8475103318       -8.8698370107
 C        -1.6866939195       -1.5285060394       -8.1973336915
 C        -2.2695518410       -2.9996956868      -11.0170274935
 C        -4.4725030506       -3.5673793618       -9.8625426336
 O        -2.7766938594       -4.3072802774       -7.5756788344
 O        -3.9155462730       -1.1394994614       -8.9040435004
 C        -1.6251218589        0.0169949126       -8.0089338246
 C        -0.4647487495        0.5859357967       -7.1729877677
 C        -0.5046987342        2.1593179711       -6.9547783972
 C        -0.6774081345        2.3135003021       -5.2906642105
 C        -1.8673052820        3.0869784636       -4.6424583526
 O         0.3784265804       -0.0357540819       -6.5458833479
 O         0.2504497144        1.8974580753       -4.6228294137
 C         0.9837501717        2.6248638688       -7.2059820806
 C        -1.5426292472        3.0108787738       -7.7044771791
 C        -1.9389656572        2.8656746025       -3.1787003032
 C        -2.6057797809        1.4315830395       -2.7046692863
 C        -2.2867360470        1.0534785172       -1.2163195366
 C        -0.6641419090        1.3388055455       -0.9687661979
 C         0.3948282743        0.4485289575       -1.8429838650
 C        -3.0254821102        1.9373070452       -0.1351959725
 C        -2.7020335659       -0.3949996949       -0.9244866067
 O        -3.2365042154        0.7248875184       -3.3992758534
 O        -0.3132507824        2.0371442959       -0.0464103291
 C         1.8756764275        0.8237068810       -1.3885144666
 C         2.3504832925        0.6649912209        0.0919227343
 C         3.7484121422        1.1646698452        0.7593004832
 C         3.6042063563        2.2499956111        1.9497886651
 C         4.3644109954        3.6437742071        1.8730956194
 O         1.4883911688        0.1835799846        0.8037769188
 O         3.0027715069        1.8470817885        2.9337488734
 C         4.5838675163       -0.0361961338        1.3012081847
 C         4.5345279443        1.7311021384       -0.4401685027
 C         3.4866605052        4.6456376518        2.6300496800
 C         2.0026852399        4.7681495769        2.2541247890
 C         0.8897975879        5.3489952332        3.2046349037
 C        -0.1971422693        4.1524074600        3.2434019361
 C        -0.2269930315        3.1341385373        4.3805868685
 C         1.3297513752        5.9034568184        4.5599981914
 C         0.2831710793        6.5739233124        2.4342237068
 O         1.6145649147        4.4518153667        1.1468024558
 O        -0.9727304924        4.0337273569        2.3251538842
 C        -1.3494575298        3.2871043177        5.4790665631
 C        -1.3774041450        2.1973498189        6.5844651017
 C        -1.8313055199        0.7611343461        6.1340495410
 C        -0.3743320669        0.0261083986        5.8910344045
 C         0.1203822436       -0.6859117653        7.1060535461
 O        -1.1198111591        2.4444848828        7.7515474201
 O        -0.0283866588       -0.0509116792        4.7140833115
 C        -2.6397479042        0.2048930256        7.3755604763
 C        -2.7219733667        0.6884915062        4.9047696342
 C         1.4471846709       -1.4120092236        7.1025547744
 C         2.0478026273       -1.8845130298        5.7973050079
 C         2.1152908163       -3.3114190077        5.2991952805
 C         1.2599072306       -3.3490802081        3.9387362631
 C         0.2119274487       -4.4289739891        3.7150414160
 C         3.4969453988       -3.6495543585        4.8405702621
 C         1.7451195906       -4.4785069603        6.2378345033
 O         2.4689719462       -0.9873339280        5.0331962579
 O         1.4264423615       -2.5515984990        3.0610401150
 C        -0.3266946977       -4.5040756245        2.2426057615
 C        -1.3321344179       -5.6644158085        2.0349676761
 C        -1.5616940473       -6.1772968318        0.5152215573
 C        -2.3107094545       -5.0856751058       -0.3243876938
 C        -3.7588314830       -5.2438281875       -0.6604686455
 O        -2.0203121531       -6.1327797391        2.9081322497
 O        -1.6804828502       -4.1273225517       -0.8038058122
 C        -0.2466585483       -6.7942038888       -0.1321376530
 C        -2.5621541267       -7.4261251045        0.6910319371
 H        -0.5224459876       -5.0218698806       -9.6086036266
 H        -1.3824539791       -6.2527242083       -8.6419286715
 H        -2.0736898001       -5.8850676604      -10.2162360245
 H        -1.6043434871       -2.0428969731       -7.2969298918
 H        -0.9644610073       -1.8302479174       -8.9296121785
 H        -2.4698534295       -3.8769179158      -11.5951430168
 H        -1.1465346165       -2.9531353618      -10.8664608200
 H        -2.6232087409       -2.0923338615      -11.4988097061
 H        -5.0401132518       -2.6217520023      -10.2193248252
 H        -4.5350763874       -4.3432409267      -10.6866356392
 H        -4.8510142992       -3.9421820889       -8.9457266794
 H        -1.5332036034        0.5245069659       -8.9795157926
 H        -2.5802179911        0.4229032049       -7.6277834411
 H        -1.5528993889        4.1304060663       -4.8506301997
 H        -2.7643319871        2.7711028692       -5.1504251320
 H         1.1216340278        3.7078424793       -6.9082106039
 H         1.4090435380        2.3641278543       -8.2393441149
 H         1.5419969214        2.0051911642       -6.4871486817
 H        -1.1305291338        3.9959226908       -7.8864290602
 H        -1.8223966512        2.6844326819       -8.7058148881
 H        -2.4361533103        3.1958717424       -7.1284504928
 H        -2.5235398052        3.6374187833       -2.6435381566
 H        -0.9978448869        2.8589557729       -2.6825282547
 H         0.2250319786       -0.5629202991       -1.6823347850
 H         0.2223301820        0.6579486983       -2.8699818884
 H        -4.0632784967        2.0615039169       -0.2723095618
 H        -2.5922682364        3.0056494650       -0.0571068025
 H        -2.9068062218        1.4927463853        0.8719283057
 H        -3.7466479431       -0.5179502697       -0.7242657195
 H        -2.4746309427       -1.0127410675       -1.8098566652
 H        -2.1121479874       -0.7855105062       -0.0680195921
 H         2.3771948216        0.1469541215       -2.0161774621
 H         1.9769082292        1.8270703517       -1.7137873552
 H         5.3280825414        3.6416252708        2.3665125686
 H         4.5787053217        3.8635455309        0.8603063650
 H         5.4631497955        0.4195436231        1.8355194167
 H         4.9749355766       -0.6905121375        0.6029293734
 H         3.9612876736       -0.6559156705        1.8938449401
 H         5.6126140229        1.8286292067       -0.1217980636
 H         4.6890627116        0.9554963511       -1.1752689783
 H         4.0944536980        2.6423907914       -0.7768301508
 H         3.8228577032        5.6073236185        2.5603666127
 H         3.4978140703        4.4480620768        3.6036718521
 H        -0.3575968974        2.1215706623        3.8527378361
 H         0.7847984958        3.1584432112        4.8906340018
 H         1.5769460959        5.0294055708        5.2253521276
 H         0.4021207034        6.3738510036        5.0423702569
 H         2.2112344469        6.4655220986        4.5946266488
 H         0.8651068394        7.4509627777        2.6396562766
 H         0.2483423897        6.3104941648        1.4015966566
 H        -0.7310672729        6.7691966337        2.7101005694
 H        -1.1805576046        4.2185372416        6.0215873327
 H        -2.3672031335        3.2546590932        4.9806638287
 H         0.1749501430       -0.1935074015        8.0579142127
 H        -0.7364414739       -1.3773813708        7.1994341086
 H        -3.6419862512        0.6693447877        7.3897702295
 H        -2.1137051182        0.4206615702        8.3120151609
 H        -2.5659910035       -0.9193760914        7.3230882451
 H        -2.1908338882        1.0273586393        3.9543403554
 H        -3.0374253548       -0.3411523804        4.6874130714
 H        -3.5807398373        1.3191796497        5.0553235232
 H         1.3383928402       -2.3867130445        7.6873975718
 H         2.1650574288       -0.7833539688        7.6405528745
 H         0.6833827270       -5.4734102626        3.7035457324
 H        -0.5905816426       -4.4825052782        4.4518688309
 H         3.5597984088       -4.5063195708        4.1556618402
 H         4.1449481405       -3.9083918333        5.6109454974
 H         3.8460125990       -2.7952760030        4.2491271343
 H         2.3500777268       -4.5738597455        7.1548249811
 H         0.7438213205       -4.3874173689        6.5315364666
 H         1.8864457098       -5.3816419945        5.6648088426
 H        -0.7541794409       -3.5162204483        1.9951763566
 H         0.5046665738       -4.5090744755        1.5311226076
 H        -4.0238808864       -4.3726501180       -1.1681968100
 H        -4.0733105996       -6.1737833613       -1.0942528413
 H        -4.1229023608       -5.2092944707        0.3704471871
 H         0.1468062637       -7.5847669408        0.3999233503
 H         0.4843297035       -5.9780280088       -0.2145932588
 H        -0.5656296169       -7.1195649343       -1.1416913063
 H        -3.0220549186       -7.7116334851       -0.2535039443
 H        -1.9644704913       -8.1209750368        1.2805185313
 H        -3.4579149451       -7.1992553649        1.2639150346
 Na        1.6766498758       -0.0688542712        3.1072814517
