155

 C        -1.3836106951       -5.2154182654       -9.5646559302
 C        -2.0507729088       -4.0292749895       -9.0040554466
 C        -2.7393933530       -3.0028836901       -9.9362456981
 C        -2.7360600318       -1.5463115633       -9.1705230564
 C        -1.4163033908       -1.1088045288       -8.4006226377
 C        -2.0818713733       -2.9020070207      -11.3394678220
 C        -4.1966568530       -3.4368052130      -10.1737561824
 O        -2.2109889644       -3.9622094845       -7.8245126819
 O        -3.6698006835       -0.7866475397       -9.2837544422
 C        -1.3227848864        0.3831376692       -8.1602410454
 C        -0.0602343852        0.8482918121       -7.5341711558
 C        -0.0296943047        2.3018934556       -6.6704718813
 C        -0.6477051838        2.0659989961       -5.2121573085
 C        -1.9287572221        2.7074615907       -4.6791831642
 O         0.9233250846        0.1696134720       -7.4554367871
 O         0.0709262635        1.3210377055       -4.5349038744
 C         1.4330109913        2.8632629305       -6.6774293266
 C        -0.9691205268        3.2850673411       -7.5519880112
 C        -2.1266556692        2.7031827245       -3.1194693812
 C        -2.6865426438        1.2777071568       -2.6923702789
 C        -2.4924881764        0.8008890987       -1.1638184919
 C        -1.1113065214        1.3328024740       -0.6985267469
 C         0.1396512280        0.7759851828       -1.4872621347
 C        -3.6032566709        1.4593021018       -0.3678730825
 C        -2.6090717190       -0.7397588390       -1.1018226587
 O        -3.4234805686        0.6551015268       -3.3889587931
 O        -1.0372701308        2.2237002834        0.0793867094
 C         1.5392891234        1.2069819140       -0.9761361712
 C         2.0315157874        0.7481857296        0.3566656542
 C         3.5849756497        1.2610803237        0.7229194817
 C         3.3558026715        2.1718945804        2.0073122728
 C         3.7016783171        3.5916924925        1.9929966455
 O         1.3146011340        0.1042053069        1.0912889987
 O         3.1241520612        1.5602109302        3.0576233285
 C         4.3843846881        0.0302643267        1.0800223923
 C         4.2868796346        1.9274910017       -0.4698939882
 C         2.8277167005        4.5398325480        2.8463561842
 C         1.4981090484        5.1582654937        2.1195450421
 C         0.3353244028        5.7297384856        3.0230201864
 C        -0.7265424482        4.4644790983        3.2407970956
 C        -0.4683358795        3.2935278686        4.2725588415
 C         0.8392871636        6.2458702415        4.3882586070
 C        -0.4144672372        6.8513060773        2.2586290808
 O         1.4561052375        5.1509511271        0.9213787770
 O        -1.7922136565        4.6177314712        2.6976409251
 C        -1.7179529935        3.0771054493        5.1546950656
 C        -1.4745962166        1.9977781649        6.3253729908
 C        -1.8278482176        0.4414064018        6.2104491627
 C        -0.4344901356       -0.3223205026        6.1859949541
 C         0.1227700068       -1.3080159332        7.1898854074
 O        -0.8181598837        2.2418091072        7.3401548816
 O         0.2338030235       -0.3044716801        5.1538374192
 C        -2.7022185041        0.0612068483        7.4805147878
 C        -2.6452482844        0.0767826176        4.9649277224
 C         1.5902809988       -1.4413260009        7.0824812812
 C         2.2414322666       -1.8293663324        5.7853895444
 C         2.0973058807       -3.3455132762        5.2264536444
 C         1.3130906975       -3.5350303422        3.8354233084
 C         1.1613529828       -5.0456120398        3.4207310550
 C         3.5365482551       -3.8594809224        4.8360947332
 C         1.3389067720       -4.2181073973        6.2507360992
 O         2.9403609070       -1.0689389130        5.1665779611
 O         1.0192809408       -2.6014155586        3.0906552333
 C         0.6357343804       -5.2470856751        1.8396273308
 C        -0.6459990742       -6.1480121274        1.8970081378
 C        -1.4086054573       -6.3343666694        0.5439441753
 C        -2.2355953095       -4.9340715785        0.3158782429
 C        -3.7800575629       -4.9038121954        0.4460544527
 O        -1.0390349489       -6.5089362964        2.9898365736
 O        -1.5260122155       -3.9638009254        0.1755014918
 C        -0.4163659061       -6.5452183024       -0.6616413156
 C        -2.3831240184       -7.5661105269        0.7273073142
 H        -2.0766737678       -6.0361350836       -9.3251785608
 H        -1.1659844878       -5.2919831301      -10.6601207061
 H        -0.5319266815       -5.4022291427       -8.9718312351
 H        -1.3231658908       -1.5478101711       -7.3307772232
 H        -0.5147543659       -1.4029592364       -8.9599173127
 H        -2.4446927505       -3.7948898294      -11.8763296859
 H        -1.0037288742       -2.7993818304      -11.2975168544
 H        -2.5865669606       -2.0978793041      -11.8981765536
 H        -4.8118124151       -2.6117235855      -10.5922675694
 H        -4.2839543361       -4.3374710233      -10.8384987192
 H        -4.5309315695       -3.8216243050       -9.2524524897
 H        -1.5423784302        0.9070972220       -9.1623031677
 H        -2.1184854717        0.6219518971       -7.4049309580
 H        -1.7865745944        3.7287671707       -4.9395012866
 H        -2.7379120968        2.2942713088       -5.2879173879
 H         1.5919189711        3.6150486498       -5.8095920680
 H         1.5483826533        3.3885176617       -7.6594581240
 H         2.1656489966        2.0193645478       -6.6653263156
 H        -0.4964019777        4.2484108658       -7.3400840180
 H        -0.9824774518        3.0974781538       -8.6219543259
 H        -2.0270204046        3.3698740905       -7.2761707429
 H        -2.9094641831        3.4261330171       -2.9101561930
 H        -1.1823894880        3.0238633144       -2.6218231447
 H         0.0821314601       -0.3427671612       -1.4227774723
 H        -0.0525056785        1.0502550711       -2.5056600555
 H        -4.4917375327        1.2143638835       -0.7436668309
 H        -3.4867646802        2.5221908657       -0.3275753160
 H        -3.5795751347        1.0774337566        0.6850315062
 H        -3.6703894181       -0.9634217108       -1.2005931103
 H        -1.9544285619       -1.1747445439       -1.8589685999
 H        -2.3552259064       -1.1389171676       -0.1445023662
 H         2.1224678327        0.8529799747       -1.8977376108
 H         1.5767310860        2.3110850976       -1.0776442131
 H         4.7392292413        3.5154487698        2.3689513831
 H         3.8640844963        4.0312516457        0.9845074152
 H         5.3480800893        0.2235232483        1.4302787488
 H         4.3908827799       -0.6765470572        0.2470439090
 H         3.9545104753       -0.4524350604        1.9811366424
 H         5.1586823946        2.4851869559       -0.1772494870
 H         4.4677591651        1.1504466655       -1.2349330155
 H         3.6572788394        2.7682422752       -0.8949177893
 H         3.4160789601        5.5776815217        3.0736193396
 H         2.3831810807        4.1790282375        3.8515914221
 H        -0.1800316983        2.3942921491        3.7205354484
 H         0.3879044454        3.5327939950        4.8760812412
 H         1.0409442305        5.4275782394        5.1084668005
 H         0.1261012721        6.8324128600        4.9130391400
 H         1.6202026309        7.0477292763        4.2988111262
 H         0.2177763442        7.6522204208        1.9927465436
 H        -0.6951293056        6.3947742471        1.2818387091
 H        -1.2525918648        7.1935459830        2.8043088560
 H        -2.1033684222        4.0507876956        5.5754833235
 H        -2.5128417541        2.6806726347        4.4556446761
 H        -0.1525507482       -1.0071835206        8.2275443443
 H        -0.3304243945       -2.3374374698        7.0718735071
 H        -3.7713669008        0.4010384345        7.4137922380
 H        -2.2790213148        0.4056707583        8.4697529026
 H        -2.7636749090       -1.0205813420        7.4996806346
 H        -2.0203306482        0.2746127247        4.0442773411
 H        -2.8459829110       -1.0233467966        5.0089579322
 H        -3.6373078196        0.4456847337        4.8945152072
 H         1.8695073208       -2.1454490852        7.8599932410
 H         2.1395943353       -0.4946693840        7.3334188158
 H         2.0664723492       -5.5586623054        3.5732790576
 H         0.3619183673       -5.7224188459        3.8561841278
 H         3.5495573026       -4.7243657662        4.2156592761
 H         4.1729062213       -4.0631500347        5.6386880044
 H         4.0732210274       -3.0913658285        4.3204500637
 H         1.8263266247       -4.1069911221        7.2740804619
 H         0.3258490662       -3.9373498732        6.3141985446
 H         1.3892468511       -5.2500937827        5.8638242469
 H         0.2294961580       -4.2921200153        1.4647680748
 H         1.5034158592       -5.6071476682        1.2777194821
 H        -3.9938390881       -3.9746445408        0.8915353123
 H        -4.0286721933       -4.8582180926       -0.6084728842
 H        -4.2331414329       -5.7588416883        0.9024610489
 H         0.0059741018       -7.5592825438       -0.5373520804
 H         0.3086286958       -5.7850885442       -0.8640269795
 H        -1.0140686939       -6.6195707642       -1.5442306788
 H        -2.9609031106       -7.6492501913       -0.1726452977
 H        -1.8025254809       -8.4705621986        0.6035220879
 H        -2.8696173255       -7.6097061299        1.6738452714
 Na        1.8336916171       -0.3272185140        3.3071643904
