155

 C        -1.3642369192       -5.1036754556       -9.6065734168
 C        -1.9402484136       -3.8255604551       -9.0455235244
 C        -2.6575302389       -2.8733499715       -9.9682330762
 C        -2.5873614190       -1.4113884669       -9.2885266398
 C        -1.2350131252       -1.0299849207       -8.6503908400
 C        -1.8611946564       -2.6402942028      -11.3220389910
 C        -4.0972389702       -3.2380428891      -10.1552115422
 O        -1.9071715841       -3.6270667229       -7.8180394366
 O        -3.5434899711       -0.6820159995       -9.3467961815
 C        -1.3833683365        0.3727407076       -7.9777241062
 C         0.0081737663        0.8680544068       -7.4807902928
 C        -0.0556591437        2.2846065357       -6.6250697272
 C        -0.5974371451        1.9495784975       -5.2709136315
 C        -1.9032147336        2.8413811579       -4.7502618083
 O         1.0139490041        0.2582316093       -7.7319685215
 O        -0.0940627128        1.1676896336       -4.5043967936
 C         1.4390335314        2.6393615061       -6.6733933817
 C        -0.8704953722        3.2348754428       -7.4702277212
 C        -2.3423072786        2.5815386934       -3.3114893853
 C        -2.8395371804        1.1950914830       -2.8875646498
 C        -2.5810247706        0.7625684972       -1.2839971516
 C        -1.1983058412        1.2658618233       -0.7760441861
 C         0.0155925412        0.4955816754       -1.1979378945
 C        -3.6709759880        1.4404651305       -0.3863078374
 C        -2.7311295649       -0.7259048288       -1.1418740326
 O        -3.4857495332        0.3733744644       -3.5253007868
 O        -0.9879470015        2.1207206310        0.0880675831
 C         1.3343762286        1.3472757636       -0.9333226389
 C         1.9396753715        0.8712076133        0.3580275105
 C         3.4621160447        1.3569423954        0.8988109783
 C         3.3209379992        2.1989595854        2.0812407970
 C         3.4075988638        3.7199170381        2.0055056615
 O         1.3859439605        0.0228479946        1.0250974294
 O         3.2031973354        1.8268571163        3.2296332436
 C         4.1951196634        0.0345933053        1.2678134996
 C         4.1942719795        2.1497590928       -0.3584395274
 C         2.4543131167        4.3796928294        2.9812962340
 C         1.3230310603        5.1292279651        2.1907628434
 C         0.1354588042        5.7462456955        2.9923383176
 C        -0.9933902257        4.6406678052        3.2842856962
 C        -0.5102868624        3.4183915874        4.2626573177
 C         0.7548201606        6.3718761935        4.3325338354
 C        -0.4185954461        6.8914969203        2.0983338927
 O         1.4224257390        5.1605133197        0.9884877778
 O        -2.0664121663        4.7127156869        2.7788615834
 C        -1.6731974318        2.8967473360        5.0919950737
 C        -1.2890002855        1.8970205347        6.2423660701
 C        -1.7937119494        0.2777428965        6.1180962407
 C        -0.4956111395       -0.4917778352        5.8053981743
 C         0.1234930473       -1.3585313154        6.9193798646
 O        -0.7496331125        2.2636526755        7.2619168839
 O         0.1027568235       -0.2670677067        4.7643018714
 C        -2.4115369789       -0.1570896088        7.5257994383
 C        -2.6987722021        0.0551964659        4.9459301161
 C         1.6915655437       -1.4784414825        6.9974231214
 C         2.2802584932       -2.0674637304        5.7256360713
 C         2.2532320712       -3.5198835659        5.3982506379
 C         1.4205105088       -3.6450864863        3.8561847096
 C         1.2005422799       -5.0391282185        3.2997969495
 C         3.7191249107       -3.9442396946        5.4076482177
 C         1.5371536362       -4.4410506646        6.3685864998
 O         2.8903271960       -1.3039038899        4.9608071839
 O         1.0639497519       -2.6430190278        3.2878006875
 C         0.6151993042       -5.1267177769        1.9484375171
 C        -0.4817706402       -6.1092512213        1.9388446466
 C        -1.3685934748       -6.2423905778        0.5926179602
 C        -2.1119406347       -4.8754141216        0.6197913313
 C        -3.6793510288       -4.8664638896        0.7045514566
 O        -0.8009353064       -6.7702985232        2.9169125260
 O        -1.4470196427       -3.8790480175        0.3946983553
 C        -0.5216190045       -6.2713800257       -0.6956930910
 C        -2.1900938421       -7.5397024717        0.7519185474
 H        -1.8294536672       -5.4155525473      -10.5381690167
 H        -0.3594592717       -4.8613288378       -9.9353655213
 H        -1.3605608850       -5.9249104963       -8.8681770689
 H        -1.0438707350       -1.7391621409       -7.8823993938
 H        -0.4005564254       -1.1307684359       -9.3988613142
 H        -1.5811529607       -3.5981869599      -11.8049517875
 H        -0.9769034282       -2.0084958568      -11.1223852156
 H        -2.5680560408       -2.1196724612      -11.9723856719
 H        -4.5188310318       -2.4991958419      -10.7991206501
 H        -4.2179087429       -4.1766231633      -10.6177964816
 H        -4.7141136114       -3.2688313727       -9.1782257834
 H        -1.9639898640        0.9362251566       -8.6713044211
 H        -2.0322444180        0.1251329532       -7.1224593914
 H        -1.6584120218        3.9472399081       -4.8127642209
 H        -2.7991722461        2.6995445585       -5.4078344614
 H         1.4926180363        3.5944974963       -6.2835368266
 H         1.8885189945        2.6293114796       -7.6432474796
 H         1.8780430714        1.9654821037       -5.9458082175
 H        -1.2288739191        4.1053667611       -6.9393285780
 H        -0.2858861040        3.5392631914       -8.3479719501
 H        -1.6727993648        2.6479772646       -7.9056417497
 H        -3.1396787894        3.3427238504       -3.1632495191
 H        -1.5147478080        2.7558833633       -2.6347784368
 H         0.0240808118       -0.3839322583       -0.5537540235
 H        -0.2365663623        0.1480469033       -2.2563187357
 H        -4.7106758365        1.1290101304       -0.8434215995
 H        -3.6277011136        2.5202847642       -0.2869353682
 H        -3.6145379625        0.9900216897        0.5712945856
 H        -3.7840571578       -0.9503218145       -0.9174329988
 H        -2.4592433750       -1.2185981626       -2.0700242268
 H        -2.0715942666       -1.1081587180       -0.3299387807
 H         1.8523860274        1.3717986482       -1.8639867442
 H         1.0553570883        2.4112427742       -0.7956274551
 H         4.4818939549        3.9475074595        2.2498004200
 H         3.3016290274        4.1609158527        0.9953522665
 H         5.0362691208        0.1373678557        1.9912018437
 H         4.5468458923       -0.4542249719        0.3301990664
 H         3.5832886313       -0.6172061982        1.8827932444
 H         5.1916054373        2.4388377034       -0.0176269573
 H         4.1958727237        1.4737155839       -1.2160349502
 H         3.7463315474        3.0402094328       -0.7895515868
 H         2.9612713484        5.0518897338        3.5323177633
 H         2.0408315855        3.6494329664        3.6404579397
 H        -0.0453429863        2.6030438806        3.7188914441
 H         0.3042110325        3.6908083335        4.9419344842
 H         1.2527740179        5.6127451515        4.8684503241
 H         0.0796386755        6.8146828662        5.0764593221
 H         1.4402928784        7.1952806450        4.1769688799
 H        -0.1667101127        7.9490990914        2.3931149774
 H        -0.0079179099        6.7791344190        1.1154969799
 H        -1.5329661753        6.7506192872        2.0568315932
 H        -2.1658229984        3.6834891808        5.6237369794
 H        -2.4394444035        2.5294615405        4.4808618268
 H        -0.2206394192       -0.9838837388        7.8816226440
 H        -0.4387066851       -2.2600224654        6.7943312994
 H        -3.4622829862        0.0658935176        7.5970079175
 H        -1.9338488396        0.3670146862        8.3059095297
 H        -2.4956048264       -1.2192620692        7.7500560997
 H        -2.1482470493        0.3703596225        4.1178562658
 H        -3.0408151796       -0.9556060085        4.7849292287
 H        -3.6374191283        0.6927093109        5.0037434258
 H         1.9413998978       -2.1580659467        7.8209729021
 H         2.1639560494       -0.5385614294        7.2114888270
 H         2.1764859539       -5.6306827609        3.3353517506
 H         0.5528646287       -5.6584306877        3.8937293839
 H         3.7094970907       -5.0059700472        5.2052193828
 H         4.3213639669       -3.6900380321        6.3375907003
 H         4.3708803752       -3.5547395653        4.6377932903
 H         1.8729639979       -4.3633443244        7.3623365369
 H         0.4210131983       -4.1545624036        6.2201810033
 H         1.5824201911       -5.4405622011        5.9485822617
 H         0.2623291171       -4.1415474050        1.6828357232
 H         1.4142586697       -5.4942088078        1.3265903179
 H        -4.0019924194       -3.7870876458        0.8140880442
 H        -4.1828499850       -5.4288904894       -0.0828212527
 H        -3.8049112090       -5.3710911046        1.6746554818
 H         0.2291519126       -7.0694152303       -0.6526961410
 H        -0.0293918737       -5.2910960679       -0.8034089882
 H        -1.1393019517       -6.3730227289       -1.6021466522
 H        -2.6395328212       -7.8018694030       -0.2010209783
 H        -1.5424181277       -8.4089993715        0.6976394064
 H        -2.9092771153       -7.4359047896        1.5752282880
 Na        1.6864389650       -0.3975264115        3.2055210277
