155

 C        -1.4434853512       -5.0642896066       -9.9074276515
 C        -1.7681373674       -3.7204187813       -9.1478619736
 C        -2.3587310563       -2.6997944058      -10.1271928638
 C        -2.4436085763       -1.2611626673       -9.4841798007
 C        -1.1426286714       -0.5249167017       -8.9102578066
 C        -1.6284721512       -2.5934140476      -11.4685498179
 C        -3.8030259431       -3.1517536064      -10.3897175791
 O        -1.5793197992       -3.3844108168       -8.0038582982
 O        -3.4988867575       -0.6938253709       -9.4683016321
 C        -1.1068800046        0.3334023961       -7.6428925220
 C         0.1343301710        1.0920053086       -7.4331996241
 C         0.0688821474        2.3483572740       -6.3569193350
 C        -0.7654833701        2.0364408287       -5.1020224274
 C        -2.1840035264        2.5931625897       -4.8574778883
 O         1.1744708886        0.8542655588       -7.9736981980
 O        -0.3750353705        1.1223309712       -4.4491496698
 C         1.5415987276        2.5432834655       -5.9100111107
 C        -0.5213418778        3.6187900903       -7.1736957068
 C        -2.4409859242        2.4367481411       -3.3900122381
 C        -2.7127240938        0.9947021782       -3.0025869379
 C        -2.7299420190        0.7069670552       -1.4679316302
 C        -1.2913163978        1.2434969366       -0.8655631565
 C         0.0140984007        0.5264231759       -1.3731411950
 C        -4.0069476890        1.2889301253       -0.8774248252
 C        -2.9269035856       -0.8561342669       -1.2977156704
 O        -3.0867185491        0.1819097891       -3.7913942078
 O        -1.2149178166        2.1475813657       -0.1098483877
 C         1.3302426836        1.2327669008       -0.9106581932
 C         1.8472175336        0.7366453716        0.4367862211
 C         3.2491243141        1.4268482314        0.9072823408
 C         2.8760857667        2.2294750912        2.1294788989
 C         3.2046258840        3.8054620617        2.2033884264
 O         1.2696427651       -0.0754838211        1.1403581136
 O         2.4591778613        1.7175830549        3.1337491534
 C         4.1851702366        0.2730877367        1.2559295922
 C         3.8556110387        2.2081442186       -0.2277630169
 C         2.2765692840        4.5881803372        3.1486316663
 C         0.9415427545        5.1208806694        2.3572552434
 C        -0.2215413430        5.8403362562        3.0919099950
 C        -1.3035859376        4.7934936384        3.6485476103
 C        -0.7627235361        3.7246578498        4.4811167018
 C         0.3402341897        6.5755603746        4.2612611348
 C        -0.9110324951        6.7545395135        2.0539206495
 O         0.8508366310        4.9209533685        1.1684589017
 O        -2.4422940239        4.8826093701        3.2368112988
 C        -1.8747702766        2.7889122940        4.9165890550
 C        -1.4222132138        1.8084749940        5.9426419194
 C        -1.9244924220        0.3856538872        5.9931450263
 C        -0.5813585822       -0.3940780812        5.6794843230
 C         0.1564826291       -1.4282191446        6.5243288047
 O        -0.5099802993        2.0920562069        6.7400115936
 O        -0.1686212144       -0.2650030743        4.5234831546
 C        -2.4598536278        0.0504264965        7.2988248704
 C        -2.9942390409        0.0916807923        4.8799386271
 C         1.6856975995       -1.2666365616        6.4384580363
 C         2.5840480947       -2.1944747608        5.6726520579
 C         2.5074997863       -3.7267354428        5.4684915179
 C         1.9533450529       -3.9892462060        4.0096023358
 C         1.6589804349       -5.3407434556        3.4028483581
 C         3.8781776007       -4.3985278579        5.5332453461
 C         1.7448178693       -4.4089948041        6.6871863382
 O         3.5839404379       -1.7376193397        5.1022862055
 O         1.7434578191       -3.0261682966        3.3277486302
 C         0.8574202929       -5.3825510093        2.0824651620
 C        -0.3061205704       -6.3448110384        1.9549579011
 C        -1.2229349203       -6.0825799097        0.7964006148
 C        -2.0732217954       -4.7256694557        0.9584922756
 C        -3.5905628344       -4.8785539655        1.3737141858
 O        -0.4016816174       -7.2661453511        2.7167799762
 O        -1.6724474505       -3.6275278640        0.6825171615
 C        -0.4015328314       -5.6602423655       -0.4868155489
 C        -2.0355091228       -7.3670756874        0.5136654726
 H        -0.3842707590       -5.0709419235      -10.1854406045
 H        -1.4861572916       -5.9653724067       -9.2578252805
 H        -2.0783180716       -5.2069024775      -10.7076998428
 H        -0.3303030776       -1.2435233231       -8.9793276952
 H        -0.7043295057        0.2168155209       -9.7002449781
 H        -1.9255924741       -3.3356683567      -12.2474650624
 H        -0.5812138913       -2.7947353267      -11.2852308877
 H        -1.6763386651       -1.5334301980      -11.7217745093
 H        -4.3982885181       -2.4055742397      -10.7951613349
 H        -3.8838379720       -4.0221994265      -10.9820844338
 H        -4.3213919238       -3.2491629684       -9.3875668903
 H        -1.9969012796        0.9523463534       -7.6035627480
 H        -1.1907763058       -0.3827901878       -6.7850782258
 H        -2.1530569372        3.6220819570       -5.2046051822
 H        -2.9344203086        2.1512596084       -5.4898151512
 H         1.6300708691        3.4672993012       -5.3368856502
 H         2.2312436526        2.5436777448       -6.8047087592
 H         1.6707724462        1.7009052276       -5.1479638983
 H        -0.3665252017        4.5437259309       -6.6083293137
 H         0.2844458753        3.7209459160       -7.9027388107
 H        -1.5355696034        3.5774679020       -7.6185628235
 H        -3.2956869928        3.0323486288       -3.0004256099
 H        -1.5450051848        2.8256661947       -2.9202563369
 H        -0.0581493625       -0.5180134767       -0.9885712142
 H        -0.1399845598        0.4492164680       -2.5146748676
 H        -4.8634576622        0.9472322715       -1.4244209757
 H        -3.8987858898        2.3221671852       -0.9819831194
 H        -4.0570961538        1.1157993074        0.2274512732
 H        -3.2446082495       -1.2719941117       -2.2474558176
 H        -1.9940602919       -1.3126481786       -1.1294244799
 H        -3.5118614654       -1.0499900136       -0.4213829001
 H         2.0505644099        1.1677665341       -1.7345250248
 H         1.1245927967        2.3482227386       -0.9757883005
 H         4.3000415052        3.9108431809        2.5592107633
 H         3.1409227497        4.2953596147        1.1702746222
 H         5.2097591877        0.4756286423        1.2425097241
 H         4.1073199587       -0.4334769165        0.3617154010
 H         3.9851710670       -0.2636450841        2.2010888236
 H         4.7826842775        2.6504357416        0.0699583932
 H         4.1400313753        1.6525090585       -1.1346622915
 H         3.0475615920        2.8413454712       -0.5935949854
 H         2.8774516769        5.3739104353        3.5373236921
 H         1.9880032057        3.9668992474        3.9266781771
 H        -0.0957699586        3.2530576859        3.8170651690
 H        -0.1355883264        3.9414648895        5.3265438287
 H         1.1178659067        6.1375433305        4.8087430632
 H        -0.4141679845        6.9367300403        4.9525360016
 H         0.9447063969        7.4632968670        3.9182144266
 H        -1.5079351269        7.4973063258        2.5910093801
 H        -0.1859388957        7.3474743437        1.5741916010
 H        -1.5202617218        6.2071229286        1.3331649252
 H        -2.6524749819        3.4237368992        5.3535701478
 H        -2.4206198980        2.3170503834        4.1764241217
 H        -0.0920320586       -1.3299164745        7.6248288689
 H        -0.2831945924       -2.3716798123        6.1971650014
 H        -3.4846824632        0.2532351015        7.5401853602
 H        -1.8607455047        0.4813329297        8.0816168263
 H        -2.4001951128       -1.0295565028        7.4863542913
 H        -2.7436581768        0.2829440809        3.8666834487
 H        -3.1298304307       -0.9849151938        4.9547732378
 H        -3.9481997939        0.7131708834        5.0345948625
 H         2.0549929693       -1.4027507144        7.4530723977
 H         1.9674713058       -0.2716523788        6.1403702788
 H         2.6123365391       -5.9781427099        3.4298262943
 H         1.1575636446       -5.8444942668        4.2046246517
 H         3.8588659531       -5.3435201220        5.1134007932
 H         4.1950177794       -4.5279073739        6.5738018214
 H         4.6562907390       -3.9341717646        5.0354155600
 H         2.4240095325       -4.1293073643        7.4675719482
 H         0.7059931933       -3.9144501312        6.7595175566
 H         1.6853411348       -5.5137073827        6.7021888022
 H         0.6294571162       -4.3080238380        1.9421025972
 H         1.5369071064       -5.7558437217        1.3016261938
 H        -3.9896920742       -3.8528064504        1.2805152009
 H        -4.1243937304       -5.6421824130        0.8581007560
 H        -3.5014947685       -5.0080383352        2.4235493648
 H         0.4556357977       -6.3682448737       -0.6355991623
 H         0.1568179360       -4.7987870751       -0.2119007041
 H        -0.9128984346       -5.5184428046       -1.4059902954
 H        -2.8294129615       -7.2639192190       -0.2016895296
 H        -1.3691035314       -8.1501176102        0.1787561215
 H        -2.5442831000       -7.6534590676        1.4019405707
 Na        1.9372811605       -0.7508022443        3.4526992844
