155

 C        -1.5432256050       -4.7732520770      -10.0106896096
 C        -1.2406647333       -3.3464346479       -9.5249951902
 C        -1.9573897096       -2.0270505375      -10.2728682599
 C        -2.1121083169       -0.8853574732       -9.3003965079
 C        -0.7358935195       -0.2366520259       -8.9843993036
 C        -0.9283619728       -1.7249592027      -11.3882041339
 C        -3.3326569779       -2.4716682549      -10.8162949000
 O        -0.5848628889       -3.2473011959       -8.5089414688
 O        -3.1855334239       -0.3572049657       -9.0732159389
 C        -0.6549158559        0.6426186690       -7.7428868721
 C         0.4623371658        1.7105891099       -7.5241920920
 C         0.4222625103        2.5818868496       -6.1866975651
 C        -0.5097567468        1.8345073333       -5.1051121807
 C        -2.0081025078        1.9853061246       -5.2373795301
 O         1.4573826106        1.7379831636       -8.2544659514
 O         0.0358869141        1.3105844680       -4.1438402139
 C         1.8111777350        2.6807342610       -5.6017914365
 C        -0.2177211852        3.9999133194       -6.5763993254
 C        -2.6761546569        1.9001510548       -3.8156944933
 C        -2.8646876008        0.5038398347       -3.2678338107
 C        -2.9899650955        0.2987002202       -1.6993502379
 C        -1.7339980132        0.9658661807       -0.9830875855
 C        -0.4694199337        0.1336361451       -0.9511332990
 C        -4.2925558332        0.9746614800       -1.3183243635
 C        -3.0955731561       -1.2777003151       -1.4604665421
 O        -2.9516885082       -0.5339727570       -3.9354918520
 O        -1.7720149060        2.1135885178       -0.6231182179
 C         0.7478886345        1.0516434080       -0.7375750125
 C         1.7089903517        0.7042671356        0.3382409990
 C         2.8047661510        1.6348690603        0.7403700773
 C         2.2871192733        2.3885309332        2.1406654652
 C         2.6051732690        3.8614788132        2.2453127878
 O         1.5482480890       -0.3847054009        0.9267662967
 O         1.8303113819        1.7437412256        3.0734796493
 C         4.1029971010        0.8259036199        1.2053881128
 C         3.1296919002        2.5993747823       -0.4308225686
 C         1.7405090713        4.6047221029        3.3136883536
 C         0.3489458723        4.6519233293        2.7236028525
 C        -0.6528788030        5.6981961345        3.1522078909
 C        -1.8079176978        4.8821095029        3.8940442205
 C        -1.2186940434        3.9143594967        4.9777392213
 C        -0.1381231205        6.8183392371        4.1699805005
 C        -1.4623718288        6.3772103416        1.9247753098
 O         0.0722971591        3.9315602339        1.7738189549
 O        -2.9988048807        5.1443035179        3.9209899035
 C        -1.5151065085        2.4030470647        4.5884402507
 C        -1.3516074297        1.4735735838        5.8249162569
 C        -1.8424493126       -0.0385957600        5.7759542830
 C        -0.6981233195       -0.6825214290        4.9551282300
 C         0.0586945261       -1.8931168116        5.5105753751
 O        -0.8265097477        1.7912283197        6.8262078018
 O        -0.2249946409       -0.1108217058        3.9685426870
 C        -1.9211544638       -0.6000724047        7.1536761809
 C        -3.2888319003       -0.2416855242        5.0358228892
 C         1.2751330972       -1.4572865858        6.3375544633
 C         2.5218987263       -2.0435188595        5.7003603075
 C         2.7010589872       -3.6080469558        5.4487807192
 C         2.0296353849       -3.8406157424        4.0490731915
 C         1.4653066383       -5.2380274969        3.7134181081
 C         4.2067637594       -4.0104367219        5.2543791331
 C         2.1116790963       -4.4796993018        6.5611172736
 O         3.4329860303       -1.3855814477        5.3272050513
 O         2.2165179129       -2.9864094765        3.1989554371
 C         1.3055225681       -5.4994912318        2.2345061361
 C         0.0524320121       -6.4066717411        1.9427003189
 C        -0.9124371359       -5.8454444183        0.9698515116
 C        -1.8020908799       -4.8953015475        1.8028196697
 C        -3.0036717981       -5.5359349348        2.5356048628
 O        -0.0762859316       -7.5212277221        2.4357749322
 O        -1.5271430468       -3.7203034355        2.0632755354
 C        -0.2050848858       -5.0978542712       -0.2389985805
 C        -1.7056729828       -7.0915252820        0.4418498818
 H        -2.5186688514       -5.0319547235      -10.4517052369
 H        -0.8319881699       -5.0538145228      -10.8057851730
 H        -1.5049323114       -5.4797759518       -9.1682454142
 H         0.0976927978       -0.9952719310       -8.9085910853
 H        -0.5415865924        0.4281673838       -9.8886756242
 H        -1.0542254100       -2.4697582985      -12.1952191469
 H         0.0586038812       -1.7242175180      -11.0477427425
 H        -1.1492492153       -0.8030422974      -11.9175757546
 H        -3.8951702847       -1.6338133728      -11.3456202974
 H        -3.4173975848       -3.3381034670      -11.5704166049
 H        -3.9195250623       -2.8826680037      -10.0511153613
 H        -1.5860452801        1.1868261637       -7.8045658083
 H        -0.8893368470        0.1222400247       -6.7838521507
 H        -2.2784839378        2.7831831286       -5.8726054874
 H        -2.4919723698        1.1464523057       -5.7491825319
 H         1.7574380093        3.3561850116       -4.7333896577
 H         2.4659099937        3.0152423277       -6.3254089983
 H         2.0570287354        1.6755126365       -5.3623325062
 H        -0.6916839572        4.4266649429       -5.7167816189
 H         0.6283962617        4.6096784632       -6.8727149134
 H        -0.8419234663        4.0430911607       -7.4470138224
 H        -3.7425165378        2.2369554712       -3.8995088456
 H        -2.2812817117        2.6165531032       -3.0832430226
 H        -0.5580677017       -0.5242106471       -0.1328513962
 H        -0.3401361250       -0.3796317493       -1.8948391916
 H        -5.0396947703        0.8957935483       -2.0522586467
 H        -3.9937095689        2.0000188819       -1.1276047081
 H        -4.6546923874        0.4550841799       -0.4160453093
 H        -3.8475433072       -1.5080000272       -0.6645159228
 H        -3.2863156591       -1.7257413118       -2.4474924230
 H        -2.1629508229       -1.6883667901       -1.0980971051
 H         1.3377287667        1.2832248281       -1.6270018427
 H         0.4206541740        2.1082021856       -0.5877337771
 H         3.6258105861        3.7922804594        2.5235069714
 H         2.5703822147        4.3437199157        1.2694289041
 H         4.8282445710        1.5415739022        1.4979820697
 H         4.4886707067        0.1240925526        0.4811573329
 H         3.9227130630        0.1730602047        2.0431322347
 H         3.7436477758        3.2816929678        0.0429761362
 H         3.5502966558        2.1100957316       -1.3005379119
 H         2.3989910054        3.3694547336       -0.7398169111
 H         2.2007586476        5.5458219983        3.5418255905
 H         1.7309830874        4.0314773984        4.2970491776
 H        -0.1379850086        4.0896926673        5.1383892105
 H        -1.7963386530        3.9931772043        5.9357859032
 H         0.2921414841        6.3706707715        5.0874917186
 H        -0.8667766030        7.5211486498        4.5069797396
 H         0.5518033311        7.5187200092        3.5941682693
 H        -1.8043985423        7.3853944847        2.1712855575
 H        -0.8812607037        6.3572838757        0.9646751894
 H        -2.3841005684        5.8042017507        1.7372068381
 H        -2.6193055662        2.4780228983        4.2669575205
 H        -0.9136358175        2.0824832773        3.6960910716
 H        -0.6128751810       -2.5465852343        6.2049111228
 H         0.2616150181       -2.4740943237        4.6205911325
 H        -2.4781453902       -0.0037602677        7.8794110128
 H        -0.9703578947       -0.8201683493        7.6852143538
 H        -2.3420440062       -1.5798686570        7.1475818294
 H        -3.1994860834       -0.2240124550        3.9301810957
 H        -3.7271723212       -1.1719365320        5.3549077198
 H        -3.9735529011        0.4027577855        5.4587365382
 H         1.1083747637       -1.8494191614        7.3533085554
 H         1.3609884102       -0.3393340383        6.4263731869
 H         2.0592355793       -5.9916553530        4.2863243891
 H         0.4859297060       -5.2145330986        4.2363638463
 H         4.3541496605       -4.6661260060        4.3470733297
 H         4.6876316193       -4.5800283652        6.0552386674
 H         4.8857556978       -3.1042013819        5.1593066941
 H         2.8823714028       -4.5238179912        7.3694869608
 H         1.4212240022       -3.9770842678        7.1030100891
 H         1.7965728459       -5.5078269025        6.3593464891
 H         1.3987700455       -4.5328837287        1.6718177061
 H         2.1775944873       -5.9681452117        1.7290569018
 H        -3.5324475144       -4.7809355054        3.0885949998
 H        -3.7063538605       -6.1207255850        1.8969865989
 H        -2.4296086781       -6.1938584418        3.2169950875
 H         0.8179580298       -5.5759414380       -0.4343868697
 H        -0.0357221560       -4.0623560503       -0.0133421921
 H        -0.6704402863       -5.0391559930       -1.1937843846
 H        -2.5865646028       -6.7615291634       -0.1900600370
 H        -1.1015564608       -7.9746328616        0.1001600115
 H        -2.0790505539       -7.5935857292        1.3935700694
 Na        2.0769591434       -0.6392846302        3.1756636628
