155

 C        -1.6321278779       -4.6132061452      -10.1073956576
 C        -0.9977574836       -3.1980753558       -9.8727574038
 C        -1.5502308738       -1.8327160810      -10.6344474864
 C        -1.5968897953       -0.5806060206       -9.5206438956
 C        -0.2684806106        0.2488828016       -9.2608873979
 C        -0.5601082267       -1.4885284653      -11.7636750725
 C        -2.8723164423       -2.0806510237      -11.2546151093
 O        -0.0472764310       -3.0727694988       -9.1505410906
 O        -2.5974915076       -0.4586487450       -8.8237776313
 C        -0.4511642548        1.1483622280       -8.0829354262
 C         0.6930207689        1.8703503022       -7.4333608131
 C         0.4988764766        2.6837509284       -6.0186491674
 C        -0.4454860803        2.0598382114       -4.8957199410
 C        -1.8879377179        1.7620471052       -5.1877143024
 O         1.8140170117        1.9542279994       -7.9372380004
 O        -0.0426909807        1.8087464354       -3.7903881906
 C         1.9493745563        2.9818714202       -5.3470922718
 C        -0.1528151127        4.1513762986       -6.2540223669
 C        -2.7217136831        1.6879178912       -3.9096059935
 C        -2.7781235764        0.2479411270       -3.3170548522
 C        -3.2453294869       -0.0302507140       -1.7906389952
 C        -2.1568500822        0.8045492896       -0.9269703812
 C        -0.7929171644        0.2113612579       -0.5617399124
 C        -4.6912932319        0.3936676027       -1.5026933835
 C        -3.0706784033       -1.5130021510       -1.3759690245
 O        -2.5670182635       -0.7274994476       -4.0315340143
 O        -2.3892488293        1.9202792994       -0.6420835710
 C         0.2871183774        1.3538843079       -0.5460083303
 C         1.5224204519        0.9053473860        0.1603464832
 C         2.7803708993        1.8070854617        0.3641393455
 C         2.7031059859        2.3829982215        1.8863135583
 C         2.5218359176        3.9526330176        2.1544468407
 O         1.5309504798       -0.1962925283        0.7211286377
 O         2.7359344615        1.6700414395        2.8842463054
 C         4.1459164012        0.9912768421        0.3101818513
 C         2.7837930603        2.9576485698       -0.6845929089
 C         1.5353601490        4.3352152415        3.3094321145
 C         0.0184139587        4.2293746943        2.8871675316
 C        -1.1168895923        5.2539506779        3.3915886907
 C        -2.1935934174        4.5852900771        4.2833828454
 C        -1.5402660144        3.8098977819        5.4787139850
 C        -0.5669316559        6.6080950542        4.0423791233
 C        -1.6566046345        5.6452370625        1.9711111576
 O        -0.2512444056        3.2891348052        2.1615194786
 O        -3.3845160229        4.5996611359        4.0212551706
 C        -1.4335097471        2.3528134942        4.9334676879
 C        -1.5141015270        1.3324100210        6.1403634891
 C        -2.1291312862       -0.0673162451        5.6954767191
 C        -0.9053106630       -0.8272139858        5.1169971554
 C        -0.4105986117       -2.1184203739        5.8381155752
 O        -1.0386525621        1.5993710336        7.1893781351
 O        -0.3931520079       -0.4102381707        4.1063773021
 C        -2.6809496526       -0.6429796608        7.0062643825
 C        -3.2800752077        0.2368841989        4.6264385267
 C         0.9336077502       -1.9757614847        6.6617074783
 C         2.2149808649       -2.0197972368        5.8078005974
 C         2.9826969078       -3.4135154295        5.3487885103
 C         2.5157991685       -3.6567109006        3.8552181154
 C         2.2519281893       -5.0267927195        3.3864220278
 C         4.4382154464       -3.0695621506        5.1104711273
 C         2.8847746342       -4.6261007687        6.3506133693
 O         2.5692833299       -0.9006168854        5.3855069899
 O         2.4748672957       -2.7652138218        3.0822309824
 C         1.5339499645       -5.1356653279        2.0061821155
 C         0.4353003565       -6.3083343973        1.9097828405
 C        -0.9187022049       -5.9812492241        1.1534568689
 C        -1.7931430661       -5.2742190930        2.2885840872
 C        -3.0317616943       -6.0314492244        2.9427009928
 O         0.6616994619       -7.3442988252        2.5160366958
 O        -1.3990071936       -4.2282084981        2.7846703968
 C        -0.5869448827       -4.9284459431       -0.1185621331
 C        -1.7327940947       -7.0641239714        0.4840710896
 H        -0.8295666081       -5.4226716497      -10.0572412024
 H        -2.3290842055       -4.9093772647       -9.2991641365
 H        -2.0613809369       -4.7833833411      -11.0219414698
 H         0.6069707935       -0.4232066867       -9.0829860699
 H         0.0482640578        0.8505800295      -10.1779714918
 H        -0.6531795890       -2.1684393005      -12.5731616615
 H         0.5142359832       -1.4025325011      -11.5788339744
 H        -0.8675078476       -0.5118896122      -12.0890662204
 H        -3.2848331402       -1.2448882960      -11.8013125312
 H        -2.7084882357       -2.8752607692      -12.0284523144
 H        -3.7549179153       -2.4357550846      -10.7522275893
 H        -1.3889451664        1.7448903564       -8.3935478201
 H        -0.8222393456        0.4526907358       -7.3068982383
 H        -2.3507161137        2.4916106767       -5.8413188216
 H        -1.9137048682        0.8283305574       -5.6284619738
 H         1.7753055447        3.6458869652       -4.5163861555
 H         2.7004599574        3.3440664765       -6.0616205278
 H         2.1629363455        2.0275072631       -4.8106023463
 H        -0.4292675569        4.6151257789       -5.3186162143
 H         0.6767016781        4.7076528600       -6.6117025929
 H        -0.9950068608        4.1530685591       -6.9324886153
 H        -3.6687799549        2.1195924665       -4.2131485556
 H        -2.2384794549        2.3672370001       -3.2657286866
 H        -0.8383197935       -0.3104616458        0.4321320493
 H        -0.4051967839       -0.4682920493       -1.3518369999
 H        -5.3108434184       -0.1488303480       -2.0734257805
 H        -4.9173821240        1.4148299097       -1.6073777364
 H        -4.7512035379        0.1130205362       -0.4008599643
 H        -2.1626795655       -2.0471045349       -1.7252533408
 H        -3.0193085135       -1.4748929772       -0.2837303883
 H        -3.9791482750       -2.1275662463       -1.6604907347
 H         0.5620707247        1.9899616969       -1.4015174032
 H        -0.0332618461        2.2419930259        0.0475395096
 H         3.5121431818        4.4903808524        2.3759816452
 H         2.0557883615        4.3509693456        1.2484053577
 H         4.9402231514        1.6179698146        0.4227455027
 H         4.2974166849        0.5662946405       -0.7174547195
 H         4.1739949839        0.2585965804        1.1000865726
 H         3.5935831234        3.6948846869       -0.6065570236
 H         2.8681235802        2.6729660301       -1.7378557626
 H         1.8013850928        3.4178027004       -0.5914771418
 H         1.8557250095        5.2868993944        3.6503658927
 H         1.6975666999        3.7217500078        4.1870958871
 H        -0.5367099868        4.1970297329        5.6280503226
 H        -2.0441818622        3.8162593090        6.4636403427
 H        -0.1696858478        6.4157440769        5.0365412009
 H        -1.3608247100        7.3977789816        4.1145459682
 H         0.3270443618        6.9079389378        3.3924282945
 H        -2.7595583881        5.8922801196        1.8834275883
 H        -1.1091530510        6.5267810465        1.6997727771
 H        -1.4358409684        4.9018914546        1.1760796012
 H        -2.1938770025        2.2345557701        4.1605390401
 H        -0.4381570433        2.2445915593        4.5555829214
 H        -1.2185073914       -2.5984153984        6.3772948026
 H        -0.1572743166       -2.8542005010        5.0489889310
 H        -3.5111924514       -0.1493924321        7.4921391392
 H        -1.9128124222       -0.7471735117        7.7576031871
 H        -3.1571624759       -1.6550901585        6.8999105438
 H        -2.8491632769        0.5238555837        3.6863392173
 H        -3.7501469893       -0.7225374446        4.4745084224
 H        -3.9821330557        1.0807301297        4.9483146317
 H         0.7672483443       -2.7407600773        7.4674196221
 H         1.0676254092       -1.0704868340        7.2268979907
 H         3.2351051241       -5.5759097960        3.4273580791
 H         1.5486129551       -5.4448969961        4.0668501229
 H         5.0392266629       -3.9401198263        4.8463299859
 H         4.7562157571       -2.5883568954        6.1051865576
 H         4.6470460266       -2.3130569641        4.3601801356
 H         3.5998171850       -4.5529222947        7.1454211279
 H         1.8684979842       -4.8157677647        6.7844028868
 H         3.0714930829       -5.6098412454        5.9404095375
 H         1.0443060440       -4.1681642891        1.8252199852
 H         2.2826571706       -5.0829579099        1.2124666497
 H        -3.3528473762       -5.4141868854        3.7978238312
 H        -3.8206712677       -5.9933552208        2.2330833633
 H        -2.7492703223       -7.0424884173        3.1138675051
 H         0.3348668688       -5.0419240717       -0.7261940606
 H        -0.6954107652       -3.8670554815        0.0986829664
 H        -1.3290382876       -5.1372677080       -0.9069865473
 H        -2.6641138539       -6.7414918285        0.0695606275
 H        -1.2218310023       -7.2408614773       -0.4386603595
 H        -1.9602452141       -7.8585651054        1.1437119230
 Na        1.7274192360       -0.6550309107        2.9094549259
