155

 C        -1.4713146344       -3.6890170386       -9.9357405262
 C        -0.4690812775       -2.5469305539      -10.2007758371
 C        -0.9310142203       -1.2368180333      -11.0528389077
 C        -1.2919191087       -0.5119405626       -9.7432789886
 C        -0.0705439430        0.0800564766       -9.0157596064
 C         0.2819491511       -0.6435797277      -11.8120604070
 C        -2.1632607223       -1.5612348920      -12.0048225264
 O         0.6554466970       -2.6957954284       -9.7891303921
 O        -2.4250777424       -0.5924566904       -9.2920492494
 C        -0.2854971989        0.7739223414       -7.5973529189
 C         0.7927708807        1.6224103379       -7.0646276750
 C         0.3306683892        2.7211283028       -5.9665105217
 C        -0.6061862905        2.1041462859       -4.8970830405
 C        -2.0750496839        1.9790737317       -5.0189243563
 O         1.9939720986        1.5415987628       -7.3148552739
 O        -0.0806561585        1.7169285697       -3.8348824034
 C         1.6295261294        3.2414700109       -5.1380305237
 C        -0.3678902150        3.9804140404       -6.7699153699
 C        -2.9237954300        1.5627931154       -3.8200321808
 C        -2.6841049285        0.1093317811       -3.2736417449
 C        -3.4007065587       -0.2245755060       -1.9571041532
 C        -2.6457624062        0.5758817153       -0.9104076753
 C        -1.1661201984        0.2506463823       -0.7504620407
 C        -4.9116057199        0.3476699273       -1.9843719145
 C        -3.3817709706       -1.7019001207       -1.7495421865
 O        -1.8659461871       -0.6778681676       -3.6628769907
 O        -3.0740187163        1.6604519777       -0.5502323811
 C        -0.2387464824        1.4212679138       -0.5704781622
 C         1.0973464945        1.0376311751        0.3443111099
 C         2.2710755913        1.9880828912        0.3986322871
 C         2.4079986472        2.7256938660        1.8898483650
 C         2.5909522547        4.2793896746        2.1997290256
 O         1.0133135475        0.1606216670        1.1803291505
 O         2.5262668866        1.9830998143        2.8326003800
 C         3.5631582016        1.1096468514        0.3581948687
 C         2.2985386106        3.0449446095       -0.6652009393
 C         1.5806283664        4.7597318325        3.2568153959
 C         0.2334898002        4.2368161110        2.8765401828
 C        -1.0420474156        4.9990124409        3.2665025590
 C        -1.9100527978        4.3262576662        4.3202805012
 C        -1.2585195698        3.4901888821        5.4218527358
 C        -0.8908147439        6.3381669863        3.9484895275
 C        -1.9148412878        5.1247136237        1.9834978613
 O         0.2120697919        3.3075000453        2.0840051773
 O        -3.1062535716        4.4209756157        4.2260490009
 C        -1.3320763389        1.9854512791        4.9808544607
 C        -1.8484738389        0.9890427860        6.1350015613
 C        -2.1168225036       -0.5509529034        5.6334007663
 C        -0.8122654312       -1.1967178188        5.0338792915
 C        -0.4144669989       -2.6152480249        5.6195590692
 O        -2.0032986569        1.3337564577        7.2579109620
 O        -0.1866828786       -0.7250899694        4.1336445757
 C        -2.6839613275       -1.3065823447        6.8031340587
 C        -3.2230484942       -0.4002247175        4.6047522550
 C         0.8274435287       -2.8271250481        6.6771357952
 C         2.0088302082       -2.0947560262        5.8914437330
 C         3.1280371922       -2.9269187345        5.1458090918
 C         2.7119947658       -3.2185715733        3.6537786912
 C         2.5761130366       -4.6394830720        3.0835083630
 C         4.3804210194       -1.9646262240        5.0292701031
 C         3.4232281564       -4.1865571442        5.8844723715
 O         1.9394680210       -0.9168234143        5.7875281943
 O         2.6862395408       -2.2833709570        2.8442048219
 C         1.6082597068       -4.8070501231        1.7805236739
 C         0.7241689942       -6.1198204082        1.9086214906
 C        -0.8392951784       -6.0904971497        1.4754460281
 C        -1.7158594469       -5.7164023212        2.7713160094
 C        -2.8369343293       -6.6646010805        3.2426267095
 O         1.1565687138       -7.2080664567        2.3168885427
 O        -1.5447099043       -4.6337233211        3.2452075711
 C        -1.1211342880       -4.9134176203        0.4658531089
 C        -1.2999231069       -7.5055065612        1.0074133070
 H        -1.4907614025       -3.9341136118       -8.8924965461
 H        -2.4127569961       -3.5350976410      -10.4055830885
 H        -1.1659500858       -4.6335077231      -10.3658047130
 H         0.6136322769       -0.7827881591       -8.9439178429
 H         0.5581762270        0.7912604901       -9.4712037803
 H         0.3982328230       -1.0636692916      -12.7694608694
 H         1.1083023999       -0.9924632128      -11.1796598180
 H         0.4247088675        0.3935792794      -11.9458996964
 H        -2.5195585137       -0.7912530995      -12.6147820559
 H        -2.0461526679       -2.3280148718      -12.6711153774
 H        -3.1151673398       -1.8637387972      -11.4439257719
 H        -1.2049650813        1.3573299747       -7.7522533724
 H        -0.6083733278       -0.0490737832       -6.8800118890
 H        -2.3434481027        3.0029765997       -5.1983647532
 H        -2.4700123169        1.3008446571       -5.8239091935
 H         1.4716008670        4.1370002689       -4.5172485034
 H         2.4179777195        3.2683784811       -5.9882087782
 H         2.0730771102        2.3590997325       -4.5752428233
 H        -0.6269386975        4.6960159210       -5.9917454208
 H         0.2035280986        4.4528592866       -7.5445333741
 H        -1.3133806822        3.6768555398       -7.1803627116
 H        -3.8898627463        1.7083242918       -4.1924615068
 H        -2.6971557338        2.2908986127       -3.0375403863
 H        -1.0925005933       -0.5817320010        0.0421355317
 H        -0.9049829679       -0.3681846409       -1.6538905385
 H        -5.5323547025       -0.2590639288       -2.6276144740
 H        -4.8996079790        1.3709251374       -2.3469642783
 H        -5.4558605702        0.3285581280       -0.9759213452
 H        -3.4729162222       -2.3961866823       -2.5735514720
 H        -2.4112086556       -2.0013608018       -1.2493370955
 H        -4.1767113680       -1.9119338493       -1.0094648471
 H         0.0181615306        1.8672214417       -1.5395356745
 H        -0.6760706815        2.3266671730       -0.1049023854
 H         3.6368858880        4.5294303222        2.4560180101
 H         2.4116923278        4.8754450981        1.2562345947
 H         4.4561651172        1.7374137843        0.6614601131
 H         3.6179830776        0.7049426486       -0.6392040453
 H         3.4405393477        0.2808538427        1.0423268138
 H         3.2658122219        3.6634789444       -0.6761159884
 H         2.2309782674        2.4985538256       -1.6375355100
 H         1.5088037990        3.7631356241       -0.6813994775
 H         1.6019057271        5.9147783586        3.3691048178
 H         1.9050529092        4.3946703322        4.3393426481
 H        -0.2974110918        3.8569458837        5.7342798303
 H        -1.8983378213        3.6223206637        6.2415174826
 H        -0.6845271690        6.1676053060        5.0494998227
 H        -1.8332658635        6.8492874098        3.6748172351
 H        -0.0695278459        6.8026320651        3.5455099534
 H        -2.9215855482        5.3732491944        2.2878349348
 H        -1.6198343445        6.0415965707        1.4255762202
 H        -1.8722050194        4.2373985080        1.3489366221
 H        -1.9214495134        1.9632142012        4.1267521722
 H        -0.4124497907        1.5065785328        4.6129885345
 H        -1.3129890050       -3.0259198860        5.8894647339
 H        -0.1271251352       -3.0626964265        4.6557982974
 H        -3.4900148465       -0.6758981073        7.2442670651
 H        -2.0995296713       -1.6281687617        7.6674245713
 H        -3.1784403321       -2.2336025088        6.4791400470
 H        -3.0160623359        0.0855276536        3.6689232136
 H        -3.6030994571       -1.4438240742        4.4647507894
 H        -4.0800476008        0.2071692335        5.0797652110
 H         0.9064989965       -3.8818697539        6.8150160403
 H         0.6034623438       -2.2728948110        7.5956283219
 H         3.5363373745       -5.1016809185        2.8703563688
 H         2.1309495150       -5.4409890098        3.8056984342
 H         4.7833967348       -1.9023974162        4.0134456705
 H         5.1924194811       -2.1297776554        5.7380544660
 H         3.8728532027       -1.0335580551        5.2446635253
 H         3.8981200811       -3.9552337633        6.8366865317
 H         2.4610472416       -4.7952569139        6.1403508099
 H         4.1361577069       -4.8400463193        5.3883947516
 H         0.9087967122       -3.9705729032        1.8308770752
 H         2.1837705886       -4.8299276860        0.8485827893
 H        -3.1527702813       -6.3742677801        4.2289661808
 H        -3.5392791207       -6.7221601424        2.4500560286
 H        -2.3388754298       -7.5915895113        3.3461574196
 H        -0.4437483508       -4.9111638498       -0.3057131444
 H        -0.9525350885       -3.8951211193        0.9172168635
 H        -2.1913616667       -4.9524142628        0.1125588738
 H        -2.3155714108       -7.3252199185        0.8435472530
 H        -0.7358288151       -7.9033403688        0.2242193824
 H        -1.1328144450       -8.2188318232        1.7159173584
 Na        1.7873486313       -0.3037395913        3.0804264968
