155

 C        -1.1512970307       -3.5282698372      -10.1156167458
 C        -0.0482027956       -2.6111541147      -10.6232691461
 C        -0.4513763022       -1.1235216920      -11.0704162070
 C        -0.8338312799       -0.2845263546       -9.7799797203
 C         0.2656917505        0.2380692122       -8.9179240717
 C         0.8333298755       -0.5637167752      -11.8300385473
 C        -1.6338284002       -1.1637230295      -11.9731596588
 O         1.0937322263       -2.9903665309      -10.7693508558
 O        -2.0138250522        0.0636366828       -9.6447924114
 C        -0.3440924833        0.7192887633       -7.5874396793
 C         0.6308563709        1.5487167110       -6.8424755964
 C         0.2050880375        2.7895412038       -5.8989258409
 C        -0.6887336531        2.2371345360       -4.8168726069
 C        -2.2458004710        2.1075463826       -5.0369677299
 O         1.7784524433        1.2520110946       -6.8516985367
 O        -0.2471470797        1.9388818253       -3.7050228764
 C         1.5110826403        3.2071953600       -5.2902359207
 C        -0.5508242657        3.8694709944       -6.6760494692
 C        -3.1278558452        1.7334716797       -3.8058593449
 C        -2.8328897635        0.3111382250       -3.3606110633
 C        -3.5078022547       -0.1905322135       -2.0697305372
 C        -2.8022551103        0.5308347548       -0.8437250620
 C        -1.3022768661        0.1227238251       -0.4306606810
 C        -4.9581096568        0.2824118315       -2.1014755495
 C        -3.1304867514       -1.6473167662       -1.8967991070
 O        -2.1664774188       -0.4728474371       -4.0647190506
 O        -3.2391822291        1.5023720930       -0.3423714990
 C        -0.4439294696        1.3680127929       -0.2005445326
 C         0.6941307496        1.1712836275        0.8351140844
 C         2.0258209713        2.0677774898        0.6619327673
 C         2.3309102641        2.6900056618        2.0254308855
 C         2.5375842817        4.3250810799        2.1509362201
 O         0.6158883244        0.3951868476        1.7730301527
 O         2.4147282784        2.0598585449        3.0705136316
 C         3.1346837018        1.0622715588        0.2627390268
 C         1.8418397345        3.1414070369       -0.4751895443
 C         1.3464593429        4.9943526886        3.0223671355
 C        -0.0019849963        4.3312857947        2.7275007951
 C        -1.1882348091        5.0134017708        3.2256576660
 C        -1.7276648186        4.0876606053        4.3994291127
 C        -0.9132508381        3.1404188445        5.1659868437
 C        -0.9086633058        6.4271596978        3.9569253733
 C        -2.1940960734        5.2030306432        2.1375105383
 O         0.0224881929        3.2642785950        2.1429893705
 O        -2.9497792822        4.1380700352        4.4496753548
 C        -1.1535839709        1.6722701921        4.7717184700
 C        -1.9206606931        0.7682915466        5.8950848132
 C        -2.1990059735       -0.8382956040        5.5081626759
 C        -0.9555958777       -1.4426810974        4.8043782025
 C        -0.3189601571       -2.7721623662        5.3291587007
 O        -2.3285881384        1.2444341386        6.8960175521
 O        -0.4019060256       -0.8714659850        3.9359042019
 C        -2.5408299311       -1.4947309533        6.8893662975
 C        -3.4919667692       -1.1159720417        4.6140622703
 C         1.0251648974       -2.9335010618        6.1046079196
 C         2.1132433685       -1.9814961395        5.5860072185
 C         3.4327394194       -2.7180276645        4.9942285807
 C         2.8606687110       -3.1114352345        3.5720484335
 C         2.5188342721       -4.5320513404        3.2813579484
 C         4.5610914519       -1.6051201803        4.6594863118
 C         3.8476690856       -3.8342899782        5.9875668518
 O         1.9900335717       -0.7922522685        5.5361482005
 O         2.5302849346       -2.1757522143        2.8114726522
 C         1.0812208637       -4.5913356140        2.5688915280
 C         0.7536444219       -6.0438587384        2.1293414135
 C        -0.7321838503       -6.2831604916        1.6519302721
 C        -1.6740044547       -6.0422661559        2.8686553372
 C        -2.4468108888       -7.1730743462        3.4543452833
 O         1.5478171088       -6.9592460411        2.1813839751
 O        -1.7402160346       -4.9462315780        3.3462658227
 C        -1.1411396025       -5.0998867639        0.5891889307
 C        -1.0462478203       -7.6362933322        1.0235468355
 H        -0.6508146870       -4.0140782130       -9.2284549407
 H        -2.1183742314       -3.0826112345       -9.8414946096
 H        -1.4181055603       -4.3022019916      -10.7598821019
 H         1.1802705185       -0.4140548494       -8.8339002705
 H         0.7141582448        1.1583039005       -9.3272541271
 H         1.0666803196       -1.2551568506      -12.6063740861
 H         1.7807767699       -0.5564507357      -11.2370333056
 H         0.6996547639        0.3982075988      -12.3129346214
 H        -1.6691880423       -0.2775572826      -12.5831582611
 H        -1.6672719619       -1.9533106692      -12.7199252689
 H        -2.6003300134       -1.3512289253      -11.4961282109
 H        -1.2555929877        1.3395134297       -7.8867612044
 H        -0.8876021412       -0.1537408062       -7.0727595474
 H        -2.6180138529        2.9740529058       -5.4756511380
 H        -2.4021896403        1.2737669680       -5.7413562917
 H         1.3896133356        4.0214464729       -4.6302898212
 H         2.1465080545        3.5653924641       -6.1053096201
 H         1.9701032737        2.3045658644       -4.8009844861
 H        -0.6215864499        4.6727846488       -5.9118192883
 H        -0.1133707786        4.3353411234       -7.5428581196
 H        -1.5516645328        3.5978750759       -6.9864231314
 H        -4.1351048674        1.8139310065       -4.1010007104
 H        -3.0319458107        2.5269976302       -3.0749357119
 H        -1.3989120124       -0.4795524096        0.5148369271
 H        -1.0943136190       -0.7019092118       -1.0739107041
 H        -5.3141485913        0.0215927820       -3.0065872109
 H        -4.9809706672        1.3380832292       -2.0265712291
 H        -5.7355673444       -0.1416970448       -1.3897022239
 H        -3.9048837623       -2.3068212486       -2.1890940198
 H        -2.2482457243       -2.0501462440       -2.4070636586
 H        -2.9110481648       -1.8068853272       -0.8291045055
 H         0.0529309827        1.5977541992       -1.1667064248
 H        -0.9768579184        2.3222650057        0.0525656551
 H         3.5051338520        4.4796385016        2.7113437228
 H         2.6800334502        4.8774059160        1.1802131337
 H         4.0013577308        1.6476309377        0.2257727407
 H         2.8726555673        0.5229867241       -0.6435128893
 H         3.1823597840        0.3459129155        1.0398759237
 H         2.8212406106        3.6731890053       -0.5800121768
 H         1.4990053153        2.7035598824       -1.4025798697
 H         1.2206702028        3.9344560984       -0.2190078934
 H         1.3940246951        6.1462075676        2.8965256329
 H         1.5964019765        4.6643855256        4.1770556742
 H         0.1866143738        3.3284749506        5.0404865126
 H        -1.1094665420        3.1514735917        6.2483037017
 H        -0.1049120368        6.2162066819        4.6967795304
 H        -1.7993987646        6.5292032837        4.6046990205
 H        -0.8228540704        7.1556935904        3.2108746967
 H        -3.0097716056        5.7762863248        2.5896087553
 H        -1.7540418948        5.6674559262        1.2362253356
 H        -2.6506327041        4.2306804332        1.8823935188
 H        -1.5038976573        1.3866339825        3.8577414628
 H        -0.1391737474        1.2637793918        4.7127453606
 H        -1.0567145474       -3.2424180976        5.8440653779
 H        -0.2300958802       -3.3557703755        4.4070395163
 H        -3.3924238355       -1.0347506431        7.4020935494
 H        -1.6963583671       -1.2926449586        7.5358667150
 H        -2.6884789047       -2.5937009999        6.9106227115
 H        -3.3889825367       -0.7213251540        3.6646470084
 H        -3.5653759443       -2.1655047981        4.4289984888
 H        -4.4562282047       -0.8696094456        5.1578651233
 H         1.2362022838       -3.9341621878        5.7566790012
 H         0.9380542407       -2.8682892966        7.1984648878
 H         3.2075712173       -5.0037140548        2.5962259313
 H         2.7374448613       -5.2786982570        4.1446556232
 H         5.5221592938       -1.9516516673        5.0794878580
 H         4.2743996122       -0.5868107631        5.1001480297
 H         4.5667238662       -1.5460676924        3.5922963597
 H         4.4819988407       -3.3443077529        6.6824451695
 H         3.1125480755       -4.4247270324        6.6505371666
 H         4.5070708681       -4.4608527280        5.4266291334
 H         0.3384581405       -4.1354778146        3.1897040326
 H         1.1985879443       -4.1013704965        1.5869088251
 H        -2.4685445226       -7.0281021857        4.5602049955
 H        -3.4097612672       -7.2442744450        2.9837685083
 H        -1.8249404741       -8.0385588078        3.3007980375
 H        -0.5265085643       -5.1637204047       -0.2758163741
 H        -1.0905499752       -4.0856876067        1.0615880669
 H        -2.2415429826       -5.1704770480        0.3076313029
 H        -2.1533134744       -7.7328549012        1.0223185779
 H        -0.4954572576       -7.7288121297        0.0643062468
 H        -0.6164254318       -8.4567656649        1.6060817753
 Na        1.8562593097       -0.1010348885        3.5261389421
