155

 C         1.7777852703       -1.0135846936      -12.6290660166
 C         2.3669536370       -0.8189765464      -11.2408832775
 C         2.5112584704        0.6184898630      -10.6471030626
 C         1.2761028552        0.6416444555       -9.6503264224
 C         1.6162279667        0.4931532928       -8.1657929657
 C         3.8841539782        0.7656154593       -9.9665013602
 C         2.4530917408        1.6706265770      -11.7259839420
 O         2.5219340275       -1.8113247920      -10.5292712079
 O         0.1502747537        0.7438445274      -10.1323941003
 C         0.2912375378        0.5073599741       -7.3925392603
 C         0.3701228357        1.2257793292       -5.9538265794
 C         0.0348856195        2.7351982748       -5.7750160827
 C        -1.1918195013        2.7524989644       -4.7346036909
 C        -2.5332636721        2.8604715949       -5.5181367340
 O         0.7617420885        0.5868549733       -5.0183777527
 O        -1.0702363237        2.6155770328       -3.5437968753
 C         1.3095945763        3.3989734506       -5.0553458295
 C        -0.2507354939        3.6070976656       -7.0908487644
 C        -3.7305605120        2.1316198274       -4.8010360513
 C        -3.5558121720        0.6338734672       -4.4009945659
 C        -4.6874297191        0.2472845326       -3.1613516600
 C        -4.2292802021        0.9472785836       -1.8653194038
 C        -3.0385558105        0.3322601667       -1.0965532149
 C        -6.1460704977        0.7915628430       -3.5644114203
 C        -4.7521514242       -1.3114771624       -3.1176768663
 O        -2.7726353339       -0.1778743913       -4.8170393518
 O        -4.7941096433        2.0024866868       -1.5159821734
 C        -1.8444362433        1.3547321542       -0.9249325054
 C        -0.9073061882        1.1393159431        0.2709376612
 C         0.3860084382        2.0910131567        0.4119080294
 C         0.2002050579        2.7966489097        1.8501353230
 C         0.1875106386        4.3774296319        1.8556772277
 O        -1.0451165618        0.2399416583        1.1276089937
 O         0.2763658159        2.1014022548        2.8285927973
 C         1.5849925145        1.2422457266        0.2656144637
 C         0.5376445452        3.1056126866       -0.7455764711
 C        -0.5207577065        4.8067890681        3.1543657305
 C        -2.0288776369        4.5916708040        3.1229854028
 C        -2.8035848417        4.3068001414        4.4136396511
 C        -2.4276433418        2.8803125157        4.9084460654
 C        -1.5898369702        2.6850766956        6.2333844132
 C        -2.4832154320        5.5396553878        5.3105054259
 C        -4.3321823116        4.4260025370        4.2330807998
 O        -2.5529363994        4.6782019873        2.0224645477
 O        -2.9690941242        1.9841124016        4.3271597361
 C        -0.9858491592        1.2216414959        6.3997662827
 C        -1.9335102659        0.0890406424        6.7934912379
 C        -1.6025359540       -1.4639983882        6.3537423660
 C        -0.2873862873       -1.3993380847        5.6139420563
 C         1.0105526676       -1.6257033908        6.5574147831
 O        -2.8856014192        0.2098104487        7.5914857502
 O        -0.2974503488       -1.1939194589        4.4010003488
 C        -1.7316965422       -2.2675149546        7.5912595987
 C        -2.6386281067       -1.8885179153        5.2514837536
 C         2.2756863987       -0.7367011809        6.2673973019
 C         2.7339491803       -0.9310302178        4.7938610566
 C         3.5023516489       -2.1102086089        4.3221146428
 C         2.4445427455       -3.0778470998        3.5181614099
 C         2.3730887863       -4.5386321806        3.7635187814
 C         4.4687512536       -1.7152974001        3.2238425513
 C         4.1376772577       -2.8900975002        5.4808148348
 O         2.3936178958        0.0092842081        4.0952272338
 O         1.6271949933       -2.6158432589        2.6967864772
 C         1.4539880754       -5.3549658919        2.8402984431
 C         2.1245198425       -6.6661813669        2.3203992113
 C         1.0420206575       -7.7581444200        1.8664223541
 C         0.4532215226       -8.4356245019        3.1028275533
 C         0.8473153761       -9.8946383833        3.2348668390
 O         3.3076811981       -6.9210377117        2.2810457548
 O        -0.3416291424       -7.8966721226        3.8185602222
 C        -0.0833386538       -7.0158472332        1.0264320162
 C         1.7437842266       -8.7153172853        0.8219213349
 H         0.8097263898       -1.5328143899      -12.6202693320
 H         1.7147756561       -0.1431431583      -13.2476153204
 H         2.4331577231       -1.8002541090      -13.0478363546
 H         2.0716295399       -0.4930622679       -8.0865726663
 H         2.2295509737        1.4235110072       -7.9370294332
 H         4.6843031204        0.8439254654      -10.6918379105
 H         4.1577135280       -0.0442743553       -9.2978736981
 H         3.9078960655        1.7313995468       -9.4922113723
 H         2.5197654016        2.6420336367      -11.2817327906
 H         3.3431171348        1.6192971523      -12.2389989295
 H         1.6201905098        1.4328977013      -12.4200950294
 H        -0.4394043286        0.9346956577       -8.0811600961
 H        -0.0125249413       -0.4717854700       -7.1901156036
 H        -2.8293672435        3.8927823334       -5.5591185260
 H        -2.4553676809        2.6095794429       -6.5564903626
 H         1.2744338069        4.4198004245       -4.7131887004
 H         2.1326013715        3.3611386083       -5.7636194087
 H         1.5808750822        2.8362505757       -4.1931979002
 H        -0.1505718709        4.6428802744       -6.7309096819
 H         0.4881649097        3.3154914270       -7.8331144414
 H        -1.2582507703        3.5016686137       -7.5270155742
 H        -4.5393458914        2.0284019763       -5.5121175138
 H        -4.2211022208        2.7260143180       -4.0346036379
 H        -3.4464778419        0.1454799923       -0.0704482351
 H        -2.8547910968       -0.5487223422       -1.6640513551
 H        -6.5653993438        1.4477002363       -2.8692591814
 H        -6.7907138642       -0.0284394746       -3.7762345439
 H        -6.0314175259        1.3716490039       -4.5764728452
 H        -5.2510853185       -1.7581232465       -3.9549188092
 H        -3.7437215932       -1.6863805531       -3.1579393500
 H        -5.1250801858       -1.6193540480       -2.1108676505
 H        -1.1123056997        1.2334321604       -1.8138774382
 H        -2.0718523258        2.4485180086       -0.9194942688
 H         1.2479275838        4.6950238492        1.7674538427
 H        -0.3198106426        4.7363640725        0.9641914856
 H         2.4861242259        1.8922845252        0.1326415265
 H         1.4688487794        0.6220112034       -0.5484222815
 H         1.8929829027        0.6361703853        1.0955081100
 H         1.3265973804        3.8137334799       -0.5172471833
 H         0.7987674153        2.5699090360       -1.6453018869
 H        -0.2975149001        3.8381616430       -0.9264887496
 H        -0.3790618356        5.9807397431        3.4285462114
 H        -0.1174313535        4.3120436478        4.0916887645
 H        -0.8038584507        3.4619609497        6.2633538976
 H        -2.2508974234        2.8254298874        7.1406264331
 H        -1.3542781696        5.5436977588        5.4547927901
 H        -2.8389366170        5.5066419927        6.3663437960
 H        -2.8065774218        6.4695341777        4.9377410615
 H        -4.7802447162        3.4494721676        4.4532347268
 H        -4.7675456225        5.1091969580        4.9097893639
 H        -4.5464018314        4.7344418082        3.1950346404
 H        -0.3982095632        0.9864121956        5.5249460260
 H        -0.2630017717        1.2729200547        7.2317439503
 H         0.6647044324       -1.3763288957        7.5171713985
 H         1.2100522231       -2.7292731287        6.6457179236
 H        -2.7954103923       -2.3234206501        7.8627679412
 H        -1.1269630308       -1.8208044254        8.3828436989
 H        -1.2402160756       -3.2596836943        7.3706107163
 H        -2.5453570767       -1.3081609713        4.3625093380
 H        -2.4838321110       -2.9130449886        4.9866055987
 H        -3.6820788782       -1.7475020111        5.5754625866
 H         2.9998104541       -0.9989298095        6.9661738789
 H         2.1164355358        0.3140428808        6.3771337915
 H         3.4515784973       -4.8470742286        3.5787283076
 H         2.3473782941       -4.8607316522        4.7857480048
 H         4.0713599927       -0.9270686822        2.6175299568
 H         4.8714012103       -2.3662005859        2.5112019442
 H         5.3697853701       -1.2234670650        3.7056819601
 H         4.5610687796       -2.1941597964        6.2118157241
 H         3.3989611923       -3.3923666152        6.0677530309
 H         4.9519054505       -3.5606883483        5.2717575716
 H         0.4473326705       -5.5617948904        3.3262586405
 H         1.2243085195       -4.6907736309        1.9778297278
 H         0.8321653952      -10.3797835788        4.2123353293
 H         0.1851918345      -10.4957146384        2.6108258013
 H         1.9052867112      -10.0064183261        2.8634807902
 H         0.3575612456       -6.4203731380        0.1549105870
 H        -0.7630875415       -6.5185170543        1.6269541774
 H        -0.6763361478       -7.8169416583        0.6158714326
 H         1.0694055320       -9.5860834216        0.6245011791
 H         2.1613912497       -8.2029262549       -0.0391146941
 H         2.7815974502       -8.9967253954        1.1270280332
 Na        0.6899887276       -0.3510061639        2.7256756393
