155

 C         2.9664270315       -0.8410693706      -12.6850618744
 C         2.8528326380       -0.5980325982      -11.1146449919
 C         2.8837912111        0.8659237613      -10.5635833098
 C         1.7538428650        1.0729956104       -9.5118538575
 C         2.0669627059        0.6597726180       -7.9505708183
 C         4.2470823287        1.0725490987       -9.8532425247
 C         2.7011488303        1.9405810858      -11.6757317598
 O         2.4508828462       -1.5387326000      -10.4134690038
 O         0.6901324333        1.5935859774       -9.7759443328
 C         0.7918791242        0.5310485960       -7.1842658676
 C         0.8083563915        1.1525380345       -5.7420258242
 C         0.2215615400        2.5946682416       -5.5963492899
 C        -1.2348580357        2.6316959605       -4.7196637584
 C        -2.5443971378        2.6438790526       -5.5964426555
 O         1.1864569190        0.4821344837       -4.8186518631
 O        -1.2281221521        2.8301522851       -3.5369410807
 C         1.2233866624        3.4629746509       -4.7827263075
 C        -0.0526682852        3.2870538757       -6.9724716856
 C        -3.8322666123        2.2055144145       -4.9374206367
 C        -3.8659455699        0.6451853253       -4.4615341086
 C        -4.7341594586        0.2886365635       -3.0573119920
 C        -4.3499878967        1.2008535198       -1.8984255327
 C        -3.3073263065        0.6590720575       -0.8483150437
 C        -6.2786707372        0.5249650228       -3.4241569422
 C        -4.4951258995       -1.2231437395       -2.7632941717
 O        -3.3928312760       -0.1552462056       -5.2045582062
 O        -4.8519427283        2.3431164360       -1.8563970560
 C        -2.1508171474        1.6621711092       -0.5036882156
 C        -0.9533470302        0.9978167123        0.1866914025
 C         0.2515937674        2.0469988484        0.2557625275
 C         0.0649335159        2.6064360560        1.7031654475
 C        -0.3758660824        4.1530834427        1.7254683826
 O        -0.8081138952       -0.0955690668        0.6427789804
 O         0.1926111772        1.9010177776        2.7359379359
 C         1.5876291520        1.2488996977        0.2669920065
 C         0.3866820791        3.1636259806       -0.8637487503
 C        -1.0198094293        4.5213110249        3.0724406660
 C        -2.6371254571        4.4171351124        3.0213479551
 C        -3.1872803589        4.2523702380        4.5616966846
 C        -2.8571498325        2.7303392170        4.8692616556
 C        -2.7111984500        2.3143670516        6.3585346156
 C        -2.4857516875        5.2160396224        5.5205106857
 C        -4.7665733048        4.4044298812        4.5613473762
 O        -3.2536898551        4.4401397457        1.9999867888
 O        -2.7145936766        1.9398787789        3.9382477042
 C        -1.6553256742        1.1896727773        6.3661933171
 C        -2.0553589254        0.0565142037        7.3274360431
 C        -1.7238355317       -1.5719710465        6.8595201249
 C        -0.5809040893       -1.4430972935        5.7105956867
 C         0.9440725370       -1.7000012923        6.0366156788
 O        -2.5707664509        0.2745464102        8.4480489767
 O        -0.8296371135       -1.0669677506        4.5404345602
 C        -1.4405878930       -2.4118532327        8.1525688171
 C        -3.1207628640       -2.0921737097        6.2560551955
 C         1.8666468909       -0.5898165449        5.6079305455
 C         2.5648608637       -0.7434991482        4.2310197762
 C         3.5104505240       -1.9347472269        3.7968025377
 C         2.5169171046       -3.0411577583        3.2657300162
 C         2.9356985440       -4.4969733529        3.1919366138
 C         4.3406553894       -1.5537479332        2.5183830326
 C         4.3766179562       -2.4111183012        4.9195799468
 O         2.3951225502        0.1185713169        3.3432018064
 O         1.3673479231       -2.8169391788        3.0396218172
 C         1.8008235199       -5.3875698752        2.6211751851
 C         2.4249403845       -6.7420571759        2.2037772934
 C         1.4546289516       -7.8984090913        1.7389871074
 C         0.9031320421       -8.6146291949        3.1231255335
 C         1.2253368469      -10.1022111001        3.3681884406
 O         3.6033747545       -6.8333220247        2.2100273182
 O         0.0533710555       -8.0292974619        3.7185480991
 C         0.2594437350       -7.2874519408        0.9767732877
 C         2.3111122356       -8.8784320853        0.8455807246
 H         3.5050855656       -1.6987045815      -12.8562069226
 H         1.9372423924       -0.9293387104      -12.8789127809
 H         3.4239094709       -0.0260239008      -13.3306966989
 H         2.5921105787       -0.2725569868       -7.9510195621
 H         2.7137442209        1.4167532588       -7.5508822934
 H         5.0967754104        0.9900563340      -10.4820869374
 H         4.3681572020        0.4903925811       -8.9184128897
 H         4.2854718820        2.0412300468       -9.3713738123
 H         2.3520132899        2.7859292049      -11.1463232041
 H         3.5264050671        2.0912792111      -12.2729786402
 H         1.7679835138        1.6989673653      -12.2086840912
 H        -0.0486432015        0.9285551656       -7.7237995493
 H         0.5760846177       -0.5233186188       -7.1035953090
 H        -2.7701826025        3.6303859245       -6.0384400129
 H        -2.4538135623        1.9610169709       -6.4260837509
 H         0.7458996021        4.3785990516       -4.4277877226
 H         1.9054769772        3.8204453224       -5.4918449696
 H         1.8065353788        3.0226084304       -4.0495577192
 H        -0.2499538866        4.3439873646       -6.7708349240
 H         0.8592780852        3.2603418659       -7.6088320212
 H        -0.8613457013        2.7225539351       -7.4703198415
 H        -4.7079752154        2.2276206727       -5.6497707126
 H        -4.1866451373        2.8214122487       -4.1016447468
 H        -3.8703289740        0.5611031226        0.0883020183
 H        -3.0541483182       -0.3955778215       -1.0987383083
 H        -6.8954268824       -0.4266320593       -3.2704704554
 H        -6.3807964207        0.9623441191       -4.4009473022
 H        -6.6256544703        1.3519812173       -2.7863507707
 H        -4.9651217556       -1.7527054798       -3.5881585444
 H        -3.3988528855       -1.4004279570       -2.8687867707
 H        -4.8495611161       -1.7239755384       -1.8737554151
 H        -1.7249297189        2.2594305606       -1.2625718917
 H        -2.5499884139        2.4636844701        0.1962420836
 H         0.5256990970        4.7006621777        1.5453879091
 H        -1.0325246318        4.3258336943        0.8868686971
 H         1.4504425925        0.3398272288        0.8880373332
 H         2.4528366343        1.7632686185        0.8201333332
 H         2.0334313352        1.0598596277       -0.7012279870
 H         1.3330794569        3.7108115952       -0.6827071350
 H         0.6935290608        2.7443828615       -1.8202162107
 H        -0.4893824930        3.7514491327       -0.9729315553
 H        -0.7525422159        5.4645244083        3.3139973892
 H        -0.6347731153        4.0059281366        3.8837129021
 H        -2.4331651483        3.0949625038        7.0052822851
 H        -3.6094874199        1.8998414978        6.7469062864
 H        -1.4778530574        4.9867356644        5.7289399129
 H        -3.0687780038        5.1916227377        6.4107397600
 H        -2.4916539352        6.2865049762        5.0706121193
 H        -5.2295126926        3.5344194856        4.1285605683
 H        -5.1504542185        4.5911368592        5.5421305307
 H        -5.0148136733        5.1495575779        3.8287370752
 H        -1.6368631686        0.8510954711        5.2719912830
 H        -0.6921183620        1.6389443410        6.7112469527
 H         1.0704734161       -1.8137680926        7.1488577141
 H         1.2576367831       -2.5777229735        5.4924794446
 H        -1.9751354448       -2.0038049325        9.0334365095
 H        -0.3674038771       -2.2964106725        8.3606596873
 H        -1.6801993028       -3.4821797483        7.9998934394
 H        -3.2013033036       -2.0279554492        5.1710386434
 H        -3.1595861150       -3.1304503551        6.4591365369
 H        -3.9184912231       -1.7166425727        6.7798254943
 H         2.6064820590       -0.3526939209        6.3958451610
 H         1.3430840410        0.3220864971        5.4335767175
 H         3.9004654954       -4.7377744135        2.7605951490
 H         3.1773276842       -4.8855721575        4.2445882921
 H         3.8092291320       -1.4621654441        1.5571443289
 H         5.2100478889       -2.2219228339        2.3254774641
 H         4.8496461276       -0.6312913242        2.5843663826
 H         4.8456666786       -1.5465408566        5.4225320323
 H         3.7673503483       -2.8748396428        5.6114297760
 H         5.1658930430       -3.1871892706        4.7288769370
 H         0.9576198608       -5.4338242695        3.3058105585
 H         1.2133041357       -5.0127500712        1.7818289689
 H         0.3508733269      -10.7409542901        3.1949111629
 H         2.0867321719      -10.4819326012        2.7580238645
 H         1.2720419412      -10.2786668819        4.4645993849
 H         0.6154507539       -6.7785026013        0.0774954613
 H        -0.2912639248       -6.6257744938        1.6576945393
 H        -0.3453332979       -8.1296713478        0.5719869074
 H         1.6275144728       -9.6509745659        0.6073083661
 H         2.3257644427       -8.3993874609       -0.1778632112
 H         3.3086930452       -9.2193098284        1.1909488448
 Na        0.2528486924       -0.5703987080        2.7063422747
