155

 C         3.8977604904       -0.5704888806      -12.1908154224
 C         3.0963912342       -0.2738766865      -10.8631771748
 C         3.1714505922        1.1928142689      -10.2337724820
 C         2.0810787411        1.3961651280       -9.1658769132
 C         2.0706129810        0.5843896630       -7.8547328669
 C         4.4384272521        1.5039782058       -9.3805630147
 C         2.9443706550        2.1894544471      -11.3325623805
 O         2.6925226408       -1.1726131479      -10.1549365223
 O         1.2495402896        2.2425402154       -9.3776141130
 C         0.6541058396        0.4863950627       -7.1152812744
 C         0.9205940038        1.3515918260       -5.8292592196
 C         0.3509091640        2.7668918503       -5.7382889345
 C        -1.1044489392        2.3533882867       -5.0153736489
 C        -2.3800206781        2.1014374998       -5.8550479021
 O         1.3939189812        0.8968371221       -4.8031500670
 O        -0.9735599868        2.2224328204       -3.8214134993
 C         1.1173981559        3.6799148418       -4.7694186645
 C         0.1729581448        3.5142854661       -7.1073873645
 C        -3.7426686520        1.9263466382       -5.1537435950
 C        -3.9266286285        0.5082165206       -4.4913385549
 C        -5.0242269134        0.2907954403       -3.3316081734
 C        -4.4056985168        1.0705186203       -2.0490495833
 C        -3.3071580331        0.4664060645       -1.1739845177
 C        -6.4141623836        0.7693964240       -3.6106909232
 C        -5.1660101780       -1.1951217771       -3.0086269841
 O        -3.2445096140       -0.4005041874       -4.8735156400
 O        -4.9336991402        2.0341555919       -1.6289588704
 C        -2.1683659841        1.3325254706       -1.1222834710
 C        -1.0527091211        0.9624294608       -0.0333226985
 C         0.1571752352        1.9513403597        0.2616268148
 C        -0.2510747097        2.4075508797        1.7093608871
 C        -0.5572648097        3.9191638799        2.0007926960
 O        -1.1494175639       -0.0678774994        0.6406744078
 O        -0.3397051873        1.7083334949        2.6736794318
 C         1.5923878223        1.3596524256        0.3470943928
 C         0.2396289670        3.0538186530       -0.7254242878
 C        -1.1493311063        4.3368791526        3.3817783229
 C        -2.7961539723        4.3846479488        3.3829480595
 C        -3.6277958744        4.0034531499        4.7924104995
 C        -3.3794819046        2.4920649590        4.9017843118
 C        -3.3028337173        1.7729739725        6.2663402830
 C        -3.0797030846        4.8351595280        5.9296365808
 C        -5.0945494205        4.3010546639        4.4791078273
 O        -3.3976284627        4.7301963632        2.4387003989
 O        -3.2981776383        1.7797331137        3.9251111376
 C        -1.8617726465        1.1409911237        6.3685333501
 C        -1.7875797840        0.0312334570        7.3980958872
 C        -1.4895914715       -1.4985443313        6.9799926872
 C        -0.5118559673       -1.3697788179        5.8043742080
 C         0.9933917437       -1.5175684905        6.1788619595
 O        -1.7316150264        0.3112307916        8.6261296747
 O        -0.9188739643       -1.1292210255        4.7047216527
 C        -1.0688242288       -2.3236689608        8.2174842530
 C        -2.7568187409       -2.1469034891        6.3615335176
 C         1.7766890144       -0.4947607415        5.4092868531
 C         2.2863373429       -0.7108963345        4.0501848947
 C         3.1087623275       -1.9249849515        3.4817313594
 C         2.1336989659       -2.9537643443        2.8341683407
 C         2.7110656921       -4.3939555320        2.9794121162
 C         4.0418256121       -1.4119787084        2.3559241997
 C         3.9372283848       -2.4663239986        4.5940228005
 O         2.1622359295        0.1881132777        3.2857315671
 O         1.0483416774       -2.6520910761        2.3236359792
 C         1.8668710324       -5.4829736438        2.2310219810
 C         2.7067018485       -6.7683025391        1.9919392785
 C         1.8680859108       -7.9317022354        1.5384650641
 C         1.3045227875       -8.5083113182        3.0085049487
 C         1.8098830947       -9.8133901702        3.5227995307
 O         3.8666065580       -6.8683370610        2.2898486895
 O         0.7083779185       -7.7077158230        3.6718758707
 C         0.5643586130       -7.6705777728        0.7160293822
 C         2.8373157372       -9.0011049175        0.9029475541
 H         4.5349496102        0.2701477488      -12.3810940075
 H         4.5654137173       -1.4273636562      -12.0565678759
 H         3.1422266906       -0.8391902582      -12.9254722546
 H         2.5755496598       -0.3457217378       -8.0740398809
 H         2.8636753956        1.0452551595       -7.3549245127
 H         5.4115780735        1.6468926610       -9.9378336587
 H         4.7493344110        0.7118164334       -8.7438613930
 H         4.3324001637        2.4763761814       -8.8695770611
 H         2.9536503044        3.1925612403      -10.9259096880
 H         3.7091420664        2.1898134919      -12.1657000790
 H         2.0066469505        1.9659656464      -11.7812142473
 H        -0.1262702125        0.8913144516       -7.7470552437
 H         0.3930682670       -0.5823159032       -6.8687003447
 H        -2.5906757834        2.9470988715       -6.5181423306
 H        -2.1026666300        1.1523935126       -6.4334939915
 H         0.5509814220        4.5445071951       -4.6408265170
 H         2.1059501478        3.9071834253       -5.0299796430
 H         1.1102537277        3.2444171446       -3.8015237728
 H        -0.1584754725        4.5580942467       -6.9894023470
 H         1.1846452102        3.5403036802       -7.5519897209
 H        -0.5738656215        3.0339132972       -7.7488499380
 H        -4.6247068269        2.1766633162       -5.7543133752
 H        -3.8063374670        2.5139581709       -4.1911813741
 H        -3.7943068106        0.2030317492       -0.2627861442
 H        -2.9625822889       -0.5146073717       -1.5239071339
 H        -6.3701533148        1.7143587472       -4.2556537114
 H        -6.9853118912        1.0691431822       -2.6960110227
 H        -6.9251866248        0.0320716762       -4.1061032363
 H        -5.7079496681       -1.7905193403       -3.7704487381
 H        -4.2615878451       -1.7692100528       -3.0430402554
 H        -5.7666512946       -1.3441351719       -2.1305537324
 H        -1.5473723067        1.1880904741       -2.0507186432
 H        -2.4151680679        2.3161987311       -1.0880972684
 H         0.4111797339        4.3778599627        1.9184596684
 H        -1.1517217206        4.2616185468        1.1968776879
 H         2.2973937534        1.6994580409       -0.3614053863
 H         1.5450942029        0.2411968038        0.3585344198
 H         2.2190732186        1.6670627789        1.2831011880
 H         1.0500138245        3.7152864368       -0.4954974751
 H         0.1422538075        2.6455545592       -1.7552653310
 H        -0.5936319540        3.7138774647       -0.6657153676
 H        -0.8067047450        5.3671416849        3.5227115100
 H        -0.7608194866        3.5651933533        4.2250492050
 H        -3.4962401168        2.4600717520        7.1167170648
 H        -4.0691702434        1.0443455872        6.4331502086
 H        -2.0552460498        4.5801252561        5.9593684789
 H        -3.5792264133        4.6560480326        6.8331713722
 H        -3.2872723293        5.8816085384        5.5597446580
 H        -5.0588191391        5.3096931505        4.2042427618
 H        -5.5811996705        3.7082992966        3.6977991781
 H        -5.6259121311        4.1606817919        5.4015900857
 H        -1.7161497548        0.8344809163        5.3281218757
 H        -1.1575653741        1.9742901969        6.6984680297
 H         1.1562393475       -1.3932332879        7.2814062288
 H         1.2224744307       -2.5711526860        5.9618035974
 H        -1.7082063195       -2.0878843313        9.0740808808
 H        -0.0338504671       -2.1131839139        8.5386045397
 H        -1.1745963546       -3.3642880139        8.0720675974
 H        -3.1229554074       -1.5068520306        5.5760605407
 H        -2.4712340856       -3.1237759377        6.0209956887
 H        -3.4927993820       -2.2011225147        7.0935220356
 H         2.7075596408       -0.1518527331        5.9396215089
 H         1.1057937990        0.4323784869        5.3572642335
 H         3.7107980678       -4.4618010581        2.4867478696
 H         2.8111097699       -4.6950792003        3.9755289423
 H         3.5189989782       -1.1248459632        1.4106740387
 H         4.6443789251       -2.2885519375        2.0013140631
 H         4.6786689573       -0.5823826512        2.5550324316
 H         4.3120665045       -1.6999287446        5.2556731271
 H         3.2645281684       -3.1487618128        5.2252830655
 H         4.7962219336       -2.9933368818        4.2027872686
 H         0.9965680630       -5.7775198550        2.8371828727
 H         1.4271293964       -4.9495917197        1.3695797344
 H         1.9233908433      -10.6211527068        2.7355093799
 H         2.7896078525       -9.6368666281        4.0329261641
 H         1.1067278574      -10.1567721546        4.2876869479
 H         0.8648470962       -7.0547080010       -0.0897450384
 H        -0.0971157295       -6.9130780244        1.2699539748
 H        -0.0384954504       -8.5820237961        0.6077758326
 H         2.4848990539       -9.9711865676        0.9336565733
 H         2.9578325171       -8.5323680941       -0.0540935803
 H         3.7362635477       -9.0922235903        1.4149027523
 Na       -0.2155281006       -0.5733496184        2.7211947965
