155

 C         9.3499556020       -3.2109145985        6.1743715860
 C         8.4923991370       -3.0458498067        4.9857521569
 C         8.1129050799       -4.2394688860        4.0139036482
 C         6.5609329149       -4.4860012340        4.5835782859
 C         5.5116916825       -3.3718056942        4.4977546241
 C         8.0525147256       -3.7865954996        2.5479812975
 C         9.0714598466       -5.4295426312        4.2919882616
 O         8.1880374753       -1.9024473247        4.6460572594
 O         6.2566885148       -5.6486963277        4.8572321314
 C         4.1636327393       -3.4343098861        5.1864290391
 C         3.0411043330       -3.8245026604        4.2605254549
 C         1.5812020173       -4.1187100209        4.8014913850
 C         1.0961743832       -2.6385767510        5.0300042589
 C         0.1336052864       -1.9264138763        4.0647254337
 O         3.1895307845       -3.6693996900        3.0716903920
 O         1.4667954298       -2.1134992906        6.1114582323
 C         0.8946625769       -4.8007965338        3.6494560625
 C         1.7510776654       -4.9560330161        6.1078716094
 C        -0.1910769823       -0.5065073065        4.4983442527
 C        -0.3638903125        0.5228713012        3.4262721667
 C        -1.1596895992        1.8771563826        3.8453522265
 C        -0.7512499113        3.1136894472        2.8821366284
 C         0.0200026301        4.3819997405        3.3368611949
 C        -2.6257556778        1.5333464400        3.7029200279
 C        -0.8741176151        2.2240284312        5.3004951888
 O        -0.0213827664        0.3732855826        2.2843075785
 O        -1.2201261613        3.1563435248        1.7470127195
 C         1.4385117976        4.4781213195        2.7871190050
 C         2.2473188257        3.2355172524        3.2322641966
 C         3.6957840122        3.1944164254        2.8768858983
 C         3.6880875702        2.9058624061        1.3239041114
 C         3.6235711511        1.4376010885        0.8861222218
 O         1.7134585186        2.2410955717        3.6824205557
 O         3.9261583605        3.8288133877        0.5502833357
 C         4.4616160020        4.5357223377        3.2389345440
 C         4.3569566210        2.1076070942        3.7510578110
 C         3.6475580644        1.1574475123       -0.6765932503
 C         2.2735834730        1.4440103925       -1.2846208415
 C         2.2054880349        1.3974102072       -2.8704246622
 C         0.6141908101        1.2479131768       -3.4066058843
 C         0.0503360149        2.4845950510       -4.0449877844
 C         2.8554782864        2.6624209426       -3.4535092768
 C         2.9648842105        0.1466476655       -3.3868188090
 O         1.3186039330        1.6723503994       -0.5399943224
 O         0.1108367392        0.1599567129       -3.4422353137
 C        -1.4911119571        2.3359842580       -4.0098601361
 C        -1.9342489716        2.3644760087       -2.5815041957
 C        -3.3878669304        2.3398108008       -2.2578978008
 C        -3.3619401059        0.8797515935       -1.7682828067
 C        -3.8156598349       -0.2425900209       -2.6642599028
 O        -1.0910591033        2.1232172748       -1.7172192221
 O        -3.0114552833        0.5908736024       -0.6067877423
 C        -3.7345952394        3.3325022044       -1.1428142563
 C        -4.2170950812        2.6772431770       -3.5404691431
 C        -5.2045105275       -0.6946442470       -2.2190450832
 C        -5.7060598677       -1.8554237978       -3.1000755412
 C        -7.2551638343       -2.1611652334       -2.9456484741
 C        -7.8019826633       -1.0478094347       -3.8143290678
 C        -7.4602946895       -1.1596236355       -5.3275204658
 C        -7.5197526039       -3.6211158453       -3.4762235153
 C        -7.7718710329       -2.1288229335       -1.5338100639
 O        -5.0818601542       -2.4356967734       -3.9133337241
 O        -8.4554112230       -0.1355561096       -3.3892703562
 C        -7.0688214611        0.2110863693       -6.0127046632
 C        -7.0947644399       -0.0503512595       -7.4756848999
 C        -5.6740814215        0.3409239600       -8.2910952561
 C        -5.4604780683        1.8818648210       -8.2583205690
 C        -6.6618479321        2.6897970923       -8.7872063589
 O        -8.1647796386       -0.3792635408       -7.9881256440
 O        -4.4752682576        2.3716727172       -7.7394844882
 C        -4.4780007349       -0.4272868664       -7.6425024657
 C        -5.9718060296       -0.1605162628       -9.7404492821
 H         9.2512459764       -4.2280913727        6.5888393349
 H        10.3522022649       -3.1136073442        5.8632212886
 H         9.0851844255       -2.3430050049        6.8219353406
 H         5.9769154151       -2.4526685625        4.9392764141
 H         5.3084175937       -3.0649890838        3.4940599389
 H         9.0653097112       -3.8832330164        2.1455626877
 H         7.7407246734       -2.7723125732        2.6063250851
 H         7.3906067107       -4.4108594958        2.0105803632
 H         8.7600932322       -5.8112993260        5.2498588619
 H         8.7090733697       -6.2999926762        3.7797433795
 H        10.0814941720       -5.0568587900        4.2330178877
 H         4.1713118295       -4.0264746995        6.1310629211
 H         3.8983313345       -2.3432471195        5.5769281599
 H         0.6326767628       -1.9668553544        3.0972600595
 H        -0.7035313839       -2.6310677319        3.9895926652
 H         1.5233811474       -5.4386649249        3.1101779932
 H         0.5383222022       -4.0007301968        2.9719691013
 H         0.0473361595       -5.4209143772        3.8174687893
 H         2.5087524723       -4.6007266143        6.7697662947
 H         0.8340037702       -4.8545046551        6.7210729261
 H         1.8562633658       -6.0473345685        5.9491632432
 H         0.6250393344        0.0043586341        5.1397986394
 H        -1.1744119636       -0.4390654015        5.0496149410
 H        -0.6355477600        5.1910421660        3.0979943036
 H        -0.0863773756        4.5333388784        4.4271188663
 H        -3.1239976781        2.4066991113        4.0536873076
 H        -2.8813389388        0.8221932755        4.5573308235
 H        -2.9507510714        1.1664836710        2.7978678400
 H        -1.1603143444        1.4523249727        6.0084823684
 H         0.2226555921        2.3422420814        5.3706933042
 H        -1.2464255955        3.1580268147        5.6414527069
 H         1.3987511560        4.4159651477        1.6650157674
 H         1.9851752765        5.3492363988        3.2148741197
 H         4.3939051013        1.0648946040        1.5084076383
 H         2.7531222337        0.9569934671        1.4036170204
 H         4.1719687702        4.8053660014        4.2329576271
 H         4.1289953318        5.3250718175        2.5205663416
 H         5.5469299710        4.3278797026        3.3011637739
 H         5.1269332747        1.5255222332        3.2142067929
 H         4.9681076634        2.7251309798        4.4197049311
 H         3.7330171332        1.4486625007        4.3368312638
 H         3.9031343905        0.1097526784       -0.8861144861
 H         4.4581954000        1.8884575686       -1.0154255152
 H         0.3894743949        3.3117920765       -3.4838112927
 H         0.2992473502        2.5251225130       -5.1327038102
 H         3.9266340219        2.3975506282       -3.5066281878
 H         2.6379900940        3.5337254753       -2.8609978239
 H         2.5238913713        2.9343916481       -4.3703447111
 H         4.0130268078        0.1090582150       -2.9084778981
 H         2.4540898256       -0.7454567398       -3.1144089465
 H         2.8986130336        0.3877266267       -4.4283072169
 H        -1.9614224088        3.1413083409       -4.5995261201
 H        -1.7488648071        1.3845793744       -4.4390404121
 H        -3.8245119191       -0.0363676013       -3.7268973030
 H        -3.2028119556       -1.1039995225       -2.6091488901
 H        -2.9563533694        3.3355285825       -0.3935473443
 H        -4.5501637160        2.9851939869       -0.5725414159
 H        -3.9164006140        4.3728400008       -1.5311757988
 H        -5.1679252851        2.3280175701       -3.4786388634
 H        -4.3296223420        3.7871792149       -3.3620147974
 H        -3.7078911296        2.2858271802       -4.3698973922
 H        -5.8817270214        0.1702296619       -2.4595138934
 H        -5.4232655384       -0.9279240298       -1.1654313925
 H        -6.7809830975       -1.9810352702       -5.4284935824
 H        -8.3225451304       -1.5305230350       -5.8537468348
 H        -6.8408706115       -4.2526457708       -2.9555379330
 H        -7.3068263523       -3.7781493472       -4.4979135010
 H        -8.5323174424       -4.0469792107       -3.2887844391
 H        -8.8102873024       -2.4396321300       -1.6402730427
 H        -7.3155176252       -2.9688855017       -0.9634150365
 H        -7.6767269859       -1.2499402141       -0.9294831420
 H        -7.8792151030        0.9189101761       -5.8157512840
 H        -6.1006590202        0.6489583193       -5.6291196161
 H        -6.5231757275        3.6842465136       -8.4848228370
 H        -6.7428290179        2.6721197930       -9.8741738223
 H        -7.5597612352        2.2650792617       -8.3231327600
 H        -4.4771405337       -1.4295006017       -8.0559110194
 H        -4.7279281718       -0.6142979717       -6.6012023168
 H        -3.5301453670        0.0637770349       -7.7602466483
 H        -5.2555719535        0.2268437956      -10.3909814656
 H        -5.8467596012       -1.2554760813       -9.7456386794
 H        -6.9730701950        0.1448328965      -10.1096743270
 Na       -0.9056217816        1.3665060056        0.5218380447
