155

 C         5.0056206634        0.0625340758      -11.6965102324
 C         4.1582827512        0.0548832460      -10.5081553223
 C         3.7992853178        1.3912294229       -9.7523252474
 C         2.3431317671        1.3114736435       -9.2056569594
 C         2.1010700377        0.5183080600       -7.9120544302
 C         4.9049005789        1.7188254021       -8.5793261420
 C         3.9813708406        2.5882736138      -10.7009920342
 O         3.5624185923       -0.9825731921      -10.1929835032
 O         1.4626803136        1.9393989429       -9.7721404848
 C         0.9076084199        1.1243071753       -7.1752300301
 C         1.1562234148        2.0090894911       -6.0120499229
 C         0.0404455931        3.0649797545       -5.6153316582
 C        -1.3418065336        2.4809689320       -5.2392929349
 C        -2.1284617344        1.5954449328       -6.2346920651
 O         2.2734529862        2.0220290892       -5.5472050840
 O        -1.8221604578        2.7314487711       -4.1715640681
 C         0.7636237532        3.8049505459       -4.3889567125
 C        -0.0704918853        4.0568882461       -6.7304045831
 C        -3.5357978493        1.4168348328       -5.6476368267
 C        -3.5877562494        0.4064564360       -4.4672720632
 C        -4.9409001983        0.2340361170       -3.6853842427
 C        -4.9982861396        0.6029021562       -2.1616867664
 C        -3.8660730497        0.2607887363       -1.2572040268
 C        -6.0227245130        1.0576968595       -4.4455923954
 C        -5.3159701926       -1.2473023837       -3.7910167765
 O        -2.6872276717       -0.3868933248       -4.2672030593
 O        -6.0552628230        0.9345499598       -1.7860716839
 C        -2.8984495619        1.3544380279       -1.0263097666
 C        -1.8730056565        0.9088224999        0.0352243052
 C        -0.9322249839        2.0274748518        0.5803185932
 C        -1.1364230300        2.3258672463        2.1359976944
 C        -1.1209552527        3.8287374846        2.5518597502
 O        -1.6878756245       -0.2447968377        0.3253935094
 O        -1.0609719795        1.4169703396        2.9633000950
 C         0.6582828814        1.7566285105        0.4532120268
 C        -1.2761992366        3.3804933939       -0.1399363371
 C        -1.7320991720        4.1394297531        3.8857931700
 C        -3.2120979000        4.3849374391        3.8490342977
 C        -4.1515770105        3.8233223243        4.9871304856
 C        -4.0216992284        2.2581905664        5.0163129264
 C        -3.4597851479        1.4238452361        6.1447033001
 C        -3.5424237882        4.3572341707        6.3505856623
 C        -5.6450384841        4.1971690445        4.8038811343
 O        -3.6055990633        5.0637983267        2.9135628695
 O        -4.5099609501        1.5924817530        4.0990309692
 C        -2.1430087297        0.8402837216        5.7881187215
 C        -1.4237559926       -0.0547266630        6.7982564781
 C        -1.3530416267       -1.6821420299        6.7434081614
 C        -0.0047052346       -1.8549260062        5.8708250007
 C         1.3040345854       -1.5538474638        6.6176568787
 O        -0.5844173064        0.4814258466        7.5782701417
 O        -0.0563454269       -2.1515354195        4.6792352949
 C        -1.4323381018       -2.0921513108        8.2245220339
 C        -2.5236279623       -2.3569889709        5.9256344996
 C         2.4280982780       -0.6949582589        5.8797699307
 C         2.4513759457       -0.8694412398        4.4286892113
 C         3.2779890323       -1.9153386285        3.6577364214
 C         2.3424178841       -3.0513624362        2.9504979806
 C         3.0617288031       -4.3656402225        2.8239478065
 C         3.6980505415       -1.1736036156        2.3474992768
 C         4.3998284348       -2.5331874098        4.4735229541
 O         1.7811352377       -0.0829830425        3.7777289825
 O         1.2619306814       -2.8488762601        2.4810358529
 C         2.0864754833       -5.3592275086        2.1755749180
 C         3.0229103188       -6.5468997931        1.6497471227
 C         2.3267260901       -7.8858415280        1.5098829936
 C         1.6673912243       -8.2281656262        2.9297015466
 C         2.4697785214       -9.1783398954        3.8751399684
 O         4.1931937983       -6.4349510386        1.4487226070
 O         0.5569829213       -7.8990728953        3.1699180866
 C         1.2004427205       -7.9051094470        0.4575281862
 C         3.4562933753       -8.9291208529        1.0112359793
 H         5.4995375336        1.0218361108      -11.7386575003
 H         5.6244445467       -0.8172869714      -11.6350324301
 H         4.3110980807       -0.0199258123      -12.4758281405
 H         1.8540964168       -0.5008853353       -8.1183962905
 H         2.9833587584        0.7510533621       -7.2676638346
 H         5.9129748800        1.4800688706       -8.8773404545
 H         4.7669597459        1.3342890769       -7.6085497473
 H         4.7861290910        2.7371951696       -8.2708529292
 H         3.8249159565        3.5192783170      -10.2161803005
 H         5.0065078103        2.4664640416      -11.0997235152
 H         3.3791590618        2.7036566696      -11.5295923834
 H         0.2493154198        1.7226371376       -7.8810939109
 H         0.2937497255        0.3207465020       -6.8460373510
 H        -2.2485569668        2.0529968735       -7.3138254218
 H        -1.5577920485        0.6457141917       -6.4189980692
 H         0.2471720218        4.6319497432       -4.0091829253
 H         1.6642290783        4.2916148296       -4.7962262880
 H         1.1134922010        3.1258765562       -3.6111936844
 H        -0.6711088552        4.9355492326       -6.3985337953
 H         0.9024528193        4.5481808432       -6.9026787386
 H        -0.4850913512        3.6688217064       -7.6743894493
 H        -4.2862412838        1.0943036077       -6.4271642824
 H        -3.8138060482        2.3603354763       -5.1909455361
 H        -4.3734106334        0.0507909033       -0.3296847159
 H        -3.3799876933       -0.5077502929       -1.8298305224
 H        -5.6836028226        2.1034303749       -4.5734478374
 H        -7.0271016444        0.8962627717       -3.9089092288
 H        -6.1702352064        0.6414981192       -5.3719116538
 H        -5.4420758171       -1.6532942637       -4.8096042058
 H        -4.5026833664       -1.7954019141       -3.3031694650
 H        -6.1916256797       -1.5773407624       -3.1629750234
 H        -2.4382954240        1.5654580184       -1.9433353074
 H        -3.3815914264        2.2757772025       -0.7132929573
 H        -0.0856749122        4.1226662138        2.5376746902
 H        -1.6039257379        4.4378343131        1.8235938593
 H         0.9815930658        1.8839298811       -0.5097391800
 H         1.0510640624        0.7532330451        0.7151742546
 H         1.0504888189        2.4748203734        1.2764961937
 H        -0.5395586939        4.0645486398        0.1858238646
 H        -0.9882503799        3.3612851738       -1.1757367264
 H        -2.3513784479        3.6413487451        0.0058401151
 H        -1.2255890344        5.0625436322        4.2746002444
 H        -1.6575156274        3.2299321199        4.6462744860
 H        -3.4351044876        1.9458588426        7.1594148916
 H        -4.1167730295        0.5131593994        6.2170252309
 H        -2.5374492474        4.0169749562        6.3651955950
 H        -4.1531745815        4.0354941514        7.1488824920
 H        -3.4538667714        5.4405494216        6.2329330009
 H        -5.9144244141        5.2022403161        4.4730231130
 H        -6.1817162666        3.4597369677        4.2575234615
 H        -5.9720269395        4.1414258755        5.8339430715
 H        -2.1689467294        0.2284582652        4.8578744092
 H        -1.3960937544        1.5646552969        5.4638529600
 H         1.0516664664       -1.0700595804        7.5079694109
 H         1.7909471163       -2.5545479878        6.9452327681
 H        -2.1768271540       -1.5621130354        8.8441621692
 H        -0.5239323586       -1.9405410150        8.8288724485
 H        -1.7120012703       -3.1691133427        8.3325866866
 H        -2.3978807588       -2.0652361737        4.9316151799
 H        -2.4668986127       -3.4074283708        6.0463839117
 H        -3.4843806278       -2.1597994143        6.3336999480
 H         3.4448575936       -0.7631115343        6.3395667449
 H         2.1024928275        0.3779056089        6.0337595858
 H         3.9481799310       -4.2551787573        2.2484659723
 H         3.3800995313       -4.8276153210        3.7998915832
 H         2.8391939539       -0.6924637752        1.8518815798
 H         4.3765262480       -1.6261483514        1.6585955257
 H         4.2703927627       -0.2777569867        2.7561056705
 H         4.8998120716       -1.7216630169        4.9580110798
 H         3.8843135072       -3.2808098206        5.1921784805
 H         5.0305873072       -3.1147065150        3.8734273869
 H         1.3016596254       -5.6029456369        2.9518024450
 H         1.6076715786       -4.8243145756        1.3530851484
 H         3.5078400997       -8.7631116103        4.0866243052
 H         2.0793342631       -9.4085982173        4.8831032926
 H         2.5576894179      -10.1163157850        3.3222340689
 H         1.2960735787       -7.4598253681       -0.5357608159
 H         0.2209027169       -7.7273242146        0.9963033885
 H         1.1285442646       -8.9645330526        0.1887064582
 H         2.9061261311       -9.8200063177        0.8933957727
 H         3.7246570969       -8.8511445993       -0.0128268357
 H         4.3090107280       -8.9341481129        1.5937536071
 Na       -0.1035769860       -0.8185577535        2.2057324162
