155

 C         5.2656729816        0.1764685266      -11.3689827771
 C         4.5078058864        0.2224332152      -10.0865533673
 C         4.1651434402        1.6812269484       -9.4743330875
 C         2.6410035355        1.6797361322       -9.0455546086
 C         2.1071178856        0.6450911564       -8.0185160646
 C         4.8411231034        1.9260958569       -7.9863369139
 C         4.4658987544        2.8535260042      -10.3706560548
 O         4.1404610944       -0.7289694406       -9.4313734715
 O         1.9355751581        2.5979421239       -9.4170188922
 C         0.8943968428        1.2155104869       -7.2820780198
 C         1.1708221214        2.2161965440       -6.2136746419
 C         0.0449119303        3.1954004662       -5.7198832751
 C        -1.0045095249        2.3712899768       -4.9938106884
 C        -1.8908718224        1.4511677120       -5.7634152815
 O         2.2781945048        2.1774410312       -5.7257514690
 O        -1.1201726780        2.5033329073       -3.7849042773
 C         0.5261853629        4.2819251999       -4.7355770764
 C        -0.4855825223        3.9629474182       -6.9692470592
 C        -3.3853713649        1.5397057119       -5.2462329538
 C        -3.5421296560        0.3561546752       -4.2231721478
 C        -4.9276007178       -0.2132819275       -3.7533381980
 C        -4.9759949660        0.3428263331       -2.3389078314
 C        -3.9675915871       -0.1762170809       -1.2830660600
 C        -6.1861259611        0.2198356549       -4.5242834222
 C        -4.6989223246       -1.7153359278       -3.7691184946
 O        -2.5511782633       -0.1451246377       -3.8178844372
 O        -5.8432008971        1.0972356612       -2.0378793172
 C        -3.0109720097        1.1148808424       -1.0446938606
 C        -1.9084183842        0.8963800141        0.0239033213
 C        -1.1304601543        2.1913615214        0.2313048743
 C        -1.1755557137        2.4201447279        1.8014817267
 C        -1.7695137531        3.7624578627        2.2855067502
 O        -1.9010554522       -0.1027797099        0.7312082492
 O        -0.6304099900        1.6171801490        2.4916101746
 C         0.3764234757        1.6930236778       -0.1021955505
 C        -1.5603889066        3.5100763196       -0.6802255724
 C        -2.1462392324        3.8678376160        3.7533967399
 C        -3.5930393873        4.2393169192        3.9902054956
 C        -4.4634944237        3.7363117814        5.3202246465
 C        -4.3831589926        2.2291051623        5.4302815076
 C        -3.1524144009        1.5719287357        6.2484821005
 C        -3.7915197763        4.4344029604        6.5440296088
 C        -5.8862355753        4.2350984385        5.0258567301
 O        -4.2076445826        4.8434937205        3.1415090270
 O        -5.0067837961        1.4913900222        4.6929853746
 C        -2.7202140917        0.1388088490        5.6863070482
 C        -1.5647817094       -0.4208804150        6.5472479783
 C        -1.2486871242       -2.0768945345        6.5948532135
 C        -0.0125629251       -2.1808940508        5.6803557204
 C         1.2997094688       -2.1245702270        6.3675302747
 O        -0.7346483811        0.2827711821        7.1079144568
 O        -0.1089982194       -2.1836184081        4.4288288696
 C        -0.9214502027       -2.2929980929        8.1026492536
 C        -2.3438746874       -3.0031491876        6.0312939384
 C         2.0197417484       -0.8758295681        5.8900014380
 C         2.1516820835       -0.7442796391        4.2332815036
 C         3.1078034110       -1.6705245403        3.4953194498
 C         2.4226750098       -2.7583115379        2.5942786431
 C         2.9768560600       -4.1852058513        2.6456802418
 C         3.8435827866       -0.7457821676        2.5170341738
 C         4.2285830229       -2.2996818955        4.4101936164
 O         1.3811709239        0.0232259324        3.6843021273
 O         1.5656502370       -2.4603616120        1.8027204803
 C         2.2343397898       -5.2445145301        1.8259040190
 C         3.1770998799       -6.4827663332        1.6542089356
 C         2.4164220016       -7.8250037463        1.3431860042
 C         1.9819617416       -8.2377167110        2.8438084783
 C         2.7171762564       -9.2232519423        3.7744737290
 O         4.4036674609       -6.4076619555        1.5887566513
 O         0.9066976393       -7.7858030728        3.1158590891
 C         1.2284362957       -7.6633715330        0.4739688380
 C         3.4073317672       -8.8467372684        0.8081681671
 H         6.3551451668        0.3915718261      -11.0950420733
 H         5.0026762383       -0.8387223238      -11.8109577361
 H         4.9506459305        0.9654006691      -12.0082168301
 H         1.7246375741       -0.3230129635       -8.5217616901
 H         2.9045171263        0.5291111149       -7.2275058677
 H         5.8960112575        2.0929899671       -7.9606143751
 H         4.6819213152        1.1089782081       -7.2335971309
 H         4.4635097114        2.8881925777       -7.6162145156
 H         4.3718362618        3.8268488921       -9.8014025775
 H         5.5280972605        2.9511528146      -10.6562811141
 H         3.8087131035        2.8797846684      -11.2110677109
 H         0.1076960979        1.4722604694       -7.9528157640
 H         0.4557489520        0.3431170723       -6.6776129300
 H        -1.8155064885        1.6772134009       -6.7896563607
 H        -1.5392556497        0.3946425178       -5.9230418493
 H        -0.2652732779        4.6942880653       -4.1895808852
 H         1.1237653040        4.9853512253       -5.2584449656
 H         1.1368351685        3.8342048261       -4.0037961618
 H        -1.1271265155        4.8124302993       -6.7377981605
 H         0.3319748637        4.4120055648       -7.5420652958
 H        -1.1391027508        3.4243110188       -7.6804198291
 H        -4.0455418436        1.3121419614       -6.0357410864
 H        -3.6862667799        2.5098100394       -4.8132062506
 H        -4.5698542108       -0.3529043583       -0.3814761778
 H        -3.2783744105       -0.9289609147       -1.6272348318
 H        -6.0477997983        0.9965556099       -5.2249602606
 H        -7.0038177849        0.5999240109       -3.8969895275
 H        -6.5631710300       -0.6572464165       -5.0922658983
 H        -4.6991220212       -2.0894806683       -4.8003274020
 H        -3.6933945206       -2.0551249385       -3.4474943869
 H        -5.5321747109       -2.2436905169       -3.2950643021
 H        -2.4457185853        1.4338745262       -1.9771315004
 H        -3.5882389059        1.9992608209       -0.6764910756
 H        -0.9794091357        4.4953865294        1.9704129745
 H        -2.6005835867        3.9709226421        1.5715934189
 H         0.5394032779        1.5446272420       -1.1925764319
 H         0.5588924882        0.7940246569        0.4279495961
 H         1.0430722733        2.5017665854        0.1686606245
 H        -0.8070760475        4.2737668037       -0.4379717813
 H        -1.5817906666        3.1893499106       -1.6699476875
 H        -2.4872368099        4.0486081502       -0.4344276674
 H        -1.6196483107        4.4720512872        4.3379905703
 H        -1.9633749680        2.9822128312        4.2759051132
 H        -2.3705007532        2.3114875726        6.0696228481
 H        -3.2797872235        1.5739466925        7.4041971886
 H        -2.6770961666        4.3196006416        6.5637809250
 H        -4.1311565100        3.8346762173        7.4308516296
 H        -4.0636215152        5.4029493692        6.6701969521
 H        -5.7947267519        5.2343152165        4.6044757187
 H        -6.2935414645        3.6184188042        4.2928424816
 H        -6.6121433061        4.3294674823        5.7997303853
 H        -3.5855228156       -0.5398117664        5.7177102799
 H        -2.2439092320        0.1994535508        4.7228417056
 H         1.2460650602       -2.0547812768        7.5070626662
 H         1.8855692203       -2.9610396572        6.0610501427
 H        -1.7823951012       -2.6936580319        8.6300068528
 H        -0.7230838140       -1.3220095041        8.5585058141
 H        -0.0525382216       -2.9597568028        8.3873045165
 H        -2.3078053201       -2.9953066495        4.9861097482
 H        -2.0452911658       -3.9883068304        6.3112036135
 H        -3.3756772588       -2.7079421878        6.3430989378
 H         3.0468028550       -0.9558251084        6.3914065893
 H         1.5036529347       -0.0031708982        6.3047599339
 H         4.0382991112       -4.3422737154        2.3363321229
 H         3.1105282092       -4.5099347366        3.6402098325
 H         3.1264940073       -0.4286923552        1.7522196987
 H         4.6277399713       -1.3209684539        2.0026879532
 H         4.2712472171        0.1728674543        3.0165533983
 H         4.5095889451       -1.4672226847        5.1108172303
 H         3.8697957806       -3.0724300720        5.0767466377
 H         5.0577940647       -2.5476357519        3.7364252700
 H         1.2766232064       -5.4689466277        2.2662312545
 H         1.9087004589       -4.9474588734        0.8175102678
 H         2.3392703040      -10.2317182153        3.5119457162
 H         3.7698904488       -9.1105566457        3.5366276556
 H         2.6928096103       -9.0927659339        4.8767832511
 H         1.5133087092       -6.9825945287       -0.4104842602
 H         0.3236353335       -7.1995013167        0.8274487941
 H         0.9090351677       -8.7023667870        0.1810651190
 H         2.8704444534       -9.8217084978        0.9677900667
 H         3.6172640418       -8.6913718372       -0.1961777966
 H         4.3188080633       -9.0263115238        1.3244258864
 Na       -0.5290356574       -0.7641617498        2.4399604627
