155

 C         5.2660256079        0.3591755458      -11.0840855415
 C         4.8967077264        0.5644483630       -9.5749173435
 C         4.6343187272        1.9337283305       -9.0480069738
 C         3.0990139493        2.1027763053       -8.6689808940
 C         2.2564746290        0.8527645919       -8.0270106401
 C         5.2278983608        2.2711924429       -7.6718364667
 C         5.1204623703        3.1289270038      -10.0038400823
 O         4.8423368295       -0.3755017709       -8.8377957934
 O         2.5401191157        3.1440206766       -8.8406935185
 C         0.8953884148        1.2614768257       -7.3884210044
 C         1.1259460403        2.2617555093       -6.2523425736
 C        -0.0285754444        3.2951198118       -5.8870454383
 C        -1.0731177939        2.4841658899       -4.9888188165
 C        -2.3404174576        1.7270459502       -5.5177944286
 O         2.1847048526        2.4247315129       -5.6974536439
 O        -0.9328385417        2.4734455885       -3.7612247442
 C         0.5214084742        4.4535596085       -5.0965233495
 C        -0.7053948184        3.8181330233       -7.2392024154
 C        -3.4615063136        1.3834656395       -4.5198060520
 C        -3.4813891125       -0.1335294836       -4.1668514749
 C        -4.7226518915       -0.8227821087       -3.5949893669
 C        -5.1462458100        0.0448470242       -2.2893752131
 C        -4.2048825440       -0.1158006512       -1.0243275893
 C        -5.8862854973       -0.8770361639       -4.6754215884
 C        -4.3564599461       -2.2995366542       -3.2692844004
 O        -2.4966339732       -0.7518057275       -4.4069219293
 O        -5.9966622747        0.8917734097       -2.3064527567
 C        -3.0783017455        0.9397463407       -1.1276630576
 C        -1.9670205055        0.7426291647       -0.0636365080
 C        -1.0265752449        1.9757405016        0.3686875991
 C        -1.4796873884        2.3966645093        1.7413464615
 C        -2.3432327972        3.6472823513        2.0030190248
 O        -1.8555239648       -0.2356566620        0.6191598674
 O        -1.0277296888        1.7083516023        2.6353375688
 C         0.5492101254        1.4730594894        0.3024227231
 C        -1.0040756326        3.0626944533       -0.7300221825
 C        -2.6018888095        3.7616369393        3.5339490970
 C        -4.0498994280        3.9418406599        3.9097123279
 C        -4.4635186209        3.5701993849        5.5262897976
 C        -4.3180210731        2.0149419478        5.5357413071
 C        -3.0656338763        1.4158656840        6.2985215989
 C        -3.5765748192        4.3174066106        6.5666051232
 C        -5.9832254925        3.9717490403        5.7748018539
 O        -4.8276844001        4.2955056335        3.0755052858
 O        -5.0608247821        1.2569854598        4.9616431768
 C        -3.2687884707       -0.0965644631        6.7156469108
 C        -1.7717166125       -0.7380031409        6.7100319180
 C        -1.5874039215       -2.2472054396        6.3361685350
 C        -0.5309497746       -2.2331155396        5.2410796783
 C         1.0238727112       -2.5610862932        5.4846209543
 O        -0.8499809960       -0.1103591679        7.0579211185
 O        -0.7933525604       -1.8770597317        4.1417185143
 C        -1.1902831362       -2.9608585568        7.6793045685
 C        -2.8310757776       -2.7848869720        5.7499264037
 C         1.9152350708       -1.2090598784        5.3958317511
 C         2.2552403072       -0.5108215369        4.0380672554
 C         3.2745717545       -1.2695790103        3.1183372888
 C         2.4652664280       -2.4102968574        2.4346218545
 C         3.1958010100       -3.6614586702        2.1679315570
 C         3.8288334753       -0.3920230757        2.0035755913
 C         4.4505046435       -1.6947329189        3.9866273238
 O         1.7245566731        0.5295347197        3.7651526925
 O         1.3813724433       -2.1347070182        1.8975352546
 C         2.4175590010       -4.8307972153        1.5551900680
 C         3.1607018133       -6.2629572823        1.5654127787
 C         2.5179516628       -7.5956139427        1.1968735156
 C         2.0368491614       -8.1037922617        2.7070983880
 C         2.6154478283       -9.3596255548        3.4579681989
 O         4.3290154105       -6.3064613580        1.9656104651
 O         1.2308144958       -7.4233070180        3.3322544855
 C         1.1496540012       -7.3631053670        0.3967771118
 C         3.4642007989       -8.5080953528        0.4057370730
 H         6.2050895460        0.8842688958      -11.3903402177
 H         5.5311273737       -0.7416799793      -11.0851494285
 H         4.3225997543        0.5797138799      -11.7059994195
 H         2.0943969090        0.1839309802       -8.8756552150
 H         2.8704983833        0.2926009957       -7.3167898886
 H         6.3582644772        2.4374387357       -7.7313015264
 H         5.0309536564        1.4641219469       -6.9611289470
 H         4.7687694430        3.2015746913       -7.2990488847
 H         5.0399106222        4.1169413342       -9.5230412609
 H         6.0975528294        3.1074306991      -10.4546927233
 H         4.3842510308        3.1891906412      -10.9049628353
 H         0.1921061543        1.6386905709       -8.2300101734
 H         0.4070882073        0.4278331778       -6.8826182744
 H        -2.8523915181        2.3455352966       -6.2898257067
 H        -2.0789017033        0.8838924846       -6.0864744440
 H        -0.3012084835        5.1692354353       -5.0685452434
 H         1.3546119753        4.9219822957       -5.4866255091
 H         0.7314448780        4.0589337207       -4.1584619691
 H        -1.3411181656        4.6884704447       -7.1310883061
 H         0.0066026286        4.0604366237       -8.0360905197
 H        -1.2241240638        3.0330691591       -7.7652274354
 H        -4.4595989629        1.6729285761       -4.9200932716
 H        -3.3288652801        1.9557879181       -3.6408497346
 H        -4.8038258287       -0.0367274807       -0.0958710957
 H        -3.9429729040       -1.2116264867       -0.9149416884
 H        -6.5878868516       -1.6910633058       -4.4947154345
 H        -5.5276729588       -1.0159761377       -5.6104089878
 H        -6.5864055676        0.0177138119       -4.6228576853
 H        -4.4526544999       -2.8190212140       -4.2516818291
 H        -3.3742951615       -2.4812837906       -2.7940500751
 H        -5.0979839436       -2.7647621164       -2.6179319767
 H        -2.5209146642        0.8501384093       -2.1202344129
 H        -3.5194033565        1.9198035852       -0.9765063585
 H        -1.6592303637        4.4513112468        1.6585085143
 H        -3.2493056702        3.4673254711        1.3864072645
 H         0.5040763321        0.7849717491       -0.6057894518
 H         0.9760029362        1.1391572455        1.2402614584
 H         1.1092373917        2.2590887679       -0.0296066665
 H        -0.3513870062        3.8421594406       -0.3261361146
 H        -0.5142328772        2.6960460144       -1.6787406603
 H        -1.9561284383        3.4679291254       -0.9371523882
 H        -2.0989395820        4.8121765991        3.8199365611
 H        -2.1851492467        2.8604380858        4.1679066021
 H        -2.2858869301        1.4709699173        5.5615245630
 H        -2.7975541555        1.9874103532        7.1246699414
 H        -2.5596253699        4.5099386211        6.2739037531
 H        -3.5812058460        3.9628359096        7.6124407831
 H        -3.9660905213        5.3623887256        6.6662517503
 H        -6.1221290903        5.0040630017        5.6786184514
 H        -6.7018945622        3.5067011039        5.0920685742
 H        -6.3307020706        3.7715378445        6.7714594454
 H        -3.7373992309       -0.1994257979        7.7024400059
 H        -3.8909565018       -0.4889871762        5.8441229919
 H         1.1955680000       -2.8722785919        6.5007547716
 H         1.3327669800       -3.3596324044        4.7917567377
 H        -2.0978457598       -3.2535982092        8.2125423272
 H        -0.5734271075       -2.2997615095        8.3170254739
 H        -0.5415715970       -3.7480699265        7.4289419848
 H        -2.8304934049       -2.5474813847        4.6591211903
 H        -2.8465453035       -3.8827899032        5.8606903846
 H        -3.7975680440       -2.5157023378        6.1695805982
 H         2.8099189595       -1.5128359306        5.8208680013
 H         1.5602700362       -0.4479235140        6.1136083726
 H         4.0469927974       -3.4427570064        1.5329362138
 H         3.7485572701       -4.0156948333        3.0758962540
 H         3.0545945362       -0.1311021044        1.2380420833
 H         4.5713860550       -1.0779771405        1.4580060727
 H         4.3485001132        0.4411914833        2.3600945023
 H         5.0282083609       -0.8903170693        4.4834519928
 H         4.1477558329       -2.4558360709        4.6213295762
 H         5.2215692550       -2.2367216203        3.3150878211
 H         1.4198790170       -4.8752605035        1.9557957919
 H         2.1506652800       -4.3958067826        0.5874088319
 H         3.5225166114       -9.0837493216        3.9459318017
 H         1.9688595072       -9.8989446658        4.1607531723
 H         2.8203676936      -10.1158150978        2.6896274282
 H         1.2475903551       -6.8667913896       -0.5853942838
 H         0.4720016417       -6.6809888759        0.9649085116
 H         0.6290432695       -8.3050196808        0.0258490848
 H         3.2796849119       -9.5777838748        0.3174306509
 H         3.5276323491       -8.0098884810       -0.5691430987
 H         4.4788646167       -8.4469834289        0.8991810966
 Na       -0.1375951214       -0.4359936446        2.5617832544
