155

 C         5.5350698740        2.8718497438       -8.1846552498
 C         5.3413852942        2.3720807596       -6.8066605709
 C         4.6351190276        3.1430132907       -5.6707194022
 C         3.1196888752        2.8636734659       -5.7763050377
 C         2.2850727432        2.2500371870       -4.6484970104
 C         5.2845178320        2.7992037269       -4.2783479257
 C         4.6317314061        4.6623328864       -5.9831855036
 O         5.7695304205        1.2186347996       -6.6249613013
 O         2.5636191144        3.1782826074       -6.8181422241
 C         0.8956348533        1.8233380324       -5.1668708317
 C        -0.0650246857        2.9376402325       -5.1288255457
 C        -1.2222875228        2.9325558325       -6.1807910558
 C        -2.0021855286        1.6088523740       -5.9680789773
 C        -1.7347044557        0.4277023949       -6.8808937279
 O        -0.0423959937        3.7372633637       -4.1969162900
 O        -2.6889798482        1.4583168359       -4.9783146838
 C        -2.1823084265        4.0809132556       -5.8032725942
 C        -0.6923252296        3.0864013382       -7.5994043399
 C        -2.5935130425       -0.7990603091       -6.4540617838
 C        -1.6898578864       -1.6335039820       -5.4638548898
 C        -2.4855784473       -2.4383693991       -4.3786754657
 C        -3.3767018719       -1.4684967035       -3.4644785687
 C        -2.5507218214       -0.9051078954       -2.1492997451
 C        -3.5452937850       -3.4700584249       -5.0735584597
 C        -1.5027776154       -3.2482247598       -3.5607930827
 O        -0.4912893148       -1.6663312233       -5.5492571645
 O        -4.4719859551       -1.1217637749       -3.7795779853
 C        -2.9908819238        0.5014551716       -1.6923088385
 C        -2.0708653781        0.8191943636       -0.5109122522
 C        -1.6683626988        2.4103620580       -0.1287568859
 C        -1.6518428190        2.6116484759        1.4209391669
 C        -2.7840976595        3.3834568171        2.1647998374
 O        -1.5173464817       -0.0817704470        0.1395507946
 O        -0.6723313239        2.3088624271        2.1206134972
 C        -0.2117542129        2.5875446392       -0.7157736279
 C        -2.7057806665        3.4056635121       -0.8242615322
 C        -2.7876700987        3.0692734908        3.7180071542
 C        -3.8850208794        2.1931878580        4.2415328264
 C        -4.2894601867        2.2164065760        5.7639510240
 C        -4.4751021436        0.7245574165        6.3037508135
 C        -3.2665909603        0.1093979209        7.1926162776
 C        -3.1868286178        3.0808239742        6.4918603374
 C        -5.6792263227        2.8853494577        5.7166719485
 O        -4.4063462788        1.3456908213        3.5014209248
 O        -5.5100838378        0.1401567047        5.9984885602
 C        -3.2200673310       -1.4096059504        7.5104798984
 C        -2.0823795839       -1.9898719308        6.6280058329
 C        -2.4006295410       -2.6121319073        5.2625891366
 C        -1.1801302103       -2.4049145082        4.2323735027
 C         0.2001117276       -3.1016877764        4.4426192309
 O        -0.9508564752       -1.7936983959        6.9494700682
 O        -1.4500653092       -1.7906776302        3.1978463724
 C        -2.6540120410       -4.1331833327        5.2624286785
 C        -3.6752979843       -2.0200827288        4.5838945721
 C         1.3579164598       -2.2230509829        4.8946208519
 C         1.6187965015       -0.8361005235        4.1111942527
 C         3.0458374348       -0.5790274501        3.3590300795
 C         2.6947345979       -1.2923435335        2.0148717364
 C         3.5133205830       -2.3634416305        1.2876749631
 C         3.0852857059        0.9680245300        3.1070607043
 C         4.2278930019       -1.2207472246        4.0812177615
 O         0.7944803388        0.0416008149        4.2351076547
 O         1.6126410345       -0.9098194112        1.4573330671
 C         2.8542182120       -3.3217235350        0.2904680606
 C         3.5961636380       -4.7410061614        0.3664121952
 C         2.5902735845       -6.0459134175        0.3190287294
 C         2.1734983442       -5.9869855883        1.7817133177
 C         2.7798440958       -6.8941050287        2.8403765590
 O         4.7632702311       -4.8901889556        0.4793273481
 O         1.3747589504       -5.0798456829        2.0259038130
 C         1.4195755005       -5.8599150563       -0.7978908782
 C         3.3210152580       -7.3171959784       -0.1590309773
 H         5.9987435764        3.8472278001       -8.3148139044
 H         6.1048374566        2.1122367762       -8.8623452991
 H         4.4753073686        3.0227387092       -8.6114444620
 H         2.7783512346        1.4877170685       -4.1210441205
 H         2.0882624069        2.8873413430       -3.8309829406
 H         6.1460182280        3.4306493083       -4.2091147882
 H         5.7223193474        1.7692434998       -4.3838676760
 H         4.6915466130        2.9626239532       -3.3883332055
 H         4.1201879973        5.1960928678       -5.1053906437
 H         5.6616729873        5.0951591185       -5.9821522948
 H         4.0166677694        4.8471144399       -6.8684012070
 H         1.1430803344        1.4855235193       -6.1776589298
 H         0.5985512603        1.0065682510       -4.5985390298
 H        -1.7384760118        0.7410047358       -7.9707195105
 H        -0.6638734033        0.2346885798       -6.8329866632
 H        -2.9283158410        4.1979796666       -6.6238719706
 H        -1.6629232249        5.0887759254       -5.6923117789
 H        -2.7278894874        4.0129492944       -4.8102464735
 H        -1.3766364332        3.4733257488       -8.3301159593
 H         0.0803558171        3.8340182813       -7.6421030521
 H        -0.1202256376        2.1989949368       -7.8646245216
 H        -2.6888094347       -1.4924449346       -7.2901704749
 H        -3.5070809886       -0.5114239051       -6.0047176153
 H        -2.7389340708       -1.5573083090       -1.2860272644
 H        -1.4229319192       -0.9523519985       -2.3517992052
 H        -3.7917524041       -3.1399704507       -6.0912969865
 H        -4.4345256867       -3.3820007694       -4.4716231220
 H        -3.2031506498       -4.5060405338       -5.1366461309
 H        -0.8557402183       -3.8529776749       -4.1812306053
 H        -0.8079366959       -2.5680965863       -3.0397193007
 H        -2.0141827908       -3.8832695522       -2.8821733059
 H        -2.8835599070        1.2561947937       -2.4926095407
 H        -4.0479337741        0.5677066976       -1.2146886963
 H        -2.6163816908        4.3992419178        2.0352204534
 H        -3.7716022319        3.0817249772        1.8562145309
 H         0.4576539424        1.6667964252       -0.6158980666
 H         0.2843507097        3.2930496088        0.0337012551
 H        -0.1907720831        2.9154000340       -1.7193700110
 H        -2.4698640608        4.4201424154       -0.3664813904
 H        -2.6004509388        3.4989930152       -1.8839426191
 H        -3.7744819692        3.1248081258       -0.6179885349
 H        -2.8709417751        4.1637484916        4.0368436487
 H        -1.8741764108        2.5408776476        3.9122271858
 H        -2.4515389807        0.2870638022        6.5122225082
 H        -3.0070466950        0.6834922525        8.1435043204
 H        -2.1777031224        2.6951039328        6.4671080216
 H        -3.5342246620        3.1216979902        7.5283682501
 H        -3.2348256798        4.0656605490        6.1006477398
 H        -5.3451252096        3.8972935323        5.3860420727
 H        -6.3543484729        2.4393895190        4.9989824229
 H        -6.2190519092        2.7982922565        6.6837872482
 H        -2.8696403161       -1.5666789714        8.5471953483
 H        -4.2166405029       -1.9180139500        7.3918329087
 H         0.1232650639       -3.9045845864        5.1783909148
 H         0.4897619278       -3.5086938854        3.4743991974
 H        -3.4795832451       -4.2727132002        5.9763524565
 H        -1.8637107096       -4.7947911482        5.6216410008
 H        -2.8142558104       -4.5793035329        4.2336819791
 H        -3.3234550163       -1.1425588941        4.0214563325
 H        -4.1486483041       -2.7039046172        3.9474285972
 H        -4.3992326918       -1.6594815899        5.2341963339
 H         2.2315162611       -2.9142595602        4.8380477521
 H         1.4145971100       -1.9750491530        5.9374899865
 H         4.2371923951       -1.7777150394        0.7740696649
 H         4.0315457095       -2.9910262344        2.0277918398
 H         4.0157360930        1.3377168034        2.8145135296
 H         2.7814105620        1.5727845699        3.9332858884
 H         2.3862610809        1.1551015056        2.2401967527
 H         4.2069163649       -1.1118619254        5.1725227114
 H         4.3322164781       -2.3537294650        3.8057501832
 H         5.1521838830       -0.8148761250        3.6720820100
 H         1.8017186783       -3.3587836868        0.5179730580
 H         3.0340010207       -2.9139932714       -0.7336838555
 H         3.7745261908       -7.1283256308        2.4661023077
 H         2.8325597412       -6.3388772203        3.7908450412
 H         2.3790043874       -7.9231518805        2.8680560343
 H         2.0210111824       -5.5600028302       -1.6773197631
 H         0.8190191054       -4.8837214143       -0.5852944908
 H         0.8864499389       -6.7262523832       -1.1415675318
 H         2.6801696911       -8.1224456127       -0.2099427617
 H         3.7398404167       -7.0024226904       -1.1335422067
 H         4.0856431481       -7.5329628241        0.5837594934
 Na       -0.2155387303       -0.0030127886        2.2241931227
