155

 C         5.5027685008        2.9868690792       -7.9588855307
 C         5.4535753994        2.4515133902       -6.5561080833
 C         4.6577704548        3.3478911353       -5.5024597618
 C         3.0426463542        3.1919485730       -5.6980997366
 C         2.3965470059        2.4942335635       -4.5106995593
 C         5.1170285782        2.8953696085       -4.1305247829
 C         5.0266660971        4.8756635273       -5.6229525771
 O         5.8904748704        1.3982608769       -6.2493638108
 O         2.4862062315        3.3904196049       -6.7519838931
 C         0.9852087446        1.9227980739       -4.9341058776
 C        -0.1132109364        2.9910182367       -4.9952227175
 C        -1.2688563455        2.7738064995       -6.0558939589
 C        -1.8444032794        1.4273682392       -5.8860998430
 C        -1.8419416652        0.3477629607       -6.9850259099
 O        -0.0881138502        3.9307934308       -4.2532424377
 O        -2.3717117893        1.1306186360       -4.8051474202
 C        -2.3728005754        3.8574488427       -5.7812708110
 C        -0.6481583416        3.1148397359       -7.3903564411
 C        -2.5689225533       -0.9575599380       -6.5859356663
 C        -1.7748345714       -1.6648006290       -5.4397432074
 C        -2.5930637006       -2.5441502513       -4.3788242014
 C        -3.3005849113       -1.5832550099       -3.3384911462
 C        -2.4998289252       -1.0921373956       -2.0616297045
 C        -3.5169954887       -3.5693276605       -5.0911575608
 C        -1.6046469371       -3.4614934806       -3.6626052761
 O        -0.5730973406       -1.7850123854       -5.4462078394
 O        -4.3980874744       -1.1799275770       -3.6466593257
 C        -2.8543045508        0.3514636838       -1.6553900209
 C        -2.0178464174        0.7974482251       -0.4163201674
 C        -1.7321175860        2.2980788260       -0.2117706411
 C        -1.7516684981        2.5273101509        1.3444284093
 C        -2.9619450182        3.1014695114        2.0207582943
 O        -1.5351832369       -0.0843219366        0.2809152931
 O        -0.7453462486        2.2816454961        2.0214020764
 C        -0.2445745191        2.5863892713       -0.7111245345
 C        -2.7601809117        3.2000945609       -0.9227724890
 C        -3.0109047504        3.1294585852        3.6199828236
 C        -3.9491715752        2.0509921572        4.0841463774
 C        -4.2499196327        2.0794218292        5.6659677032
 C        -4.3955309778        0.6925516932        6.3953971087
 C        -3.1884905701        0.1512991179        7.2863605927
 C        -3.2886846658        2.8124662318        6.5358072786
 C        -5.5620987792        2.8447208705        5.6451343619
 O        -4.4783869241        1.3246683715        3.3173591401
 O        -5.4754927976        0.1044420357        6.3957906817
 C        -3.2922897625       -1.3838243892        7.2836070423
 C        -2.1499982542       -2.0600001364        6.3829003813
 C        -2.4874069937       -2.5908692603        4.9759184967
 C        -1.2322500151       -2.1602455440        4.1435056320
 C         0.0719915393       -2.9691162256        4.2603146523
 O        -1.0447930824       -2.3126065713        6.8702239482
 O        -1.2844134269       -1.1769245347        3.4481108309
 C        -2.6736187136       -4.1731880927        5.0990781278
 C        -3.7521955716       -2.0320357132        4.3123084912
 C         1.2970551241       -2.2122395548        4.9104527372
 C         1.5290553544       -0.8902271430        4.1661826897
 C         2.8868265605       -0.6337308810        3.1998428563
 C         2.7352510277       -1.2828095005        1.8049790118
 C         3.7553669011       -2.3264981347        1.2731213703
 C         3.1229193157        0.9156950642        2.9571444233
 C         4.1250057319       -1.0962136160        4.0766213894
 O         0.8447374306        0.0990416464        4.4074580357
 O         1.8505445569       -0.9926854392        1.0827631661
 C         2.9120628741       -3.2656646269        0.2845428648
 C         3.6460007728       -4.6294438064        0.2366175231
 C         2.5945325821       -5.8935808238        0.1850093194
 C         2.0973178655       -5.8558675523        1.6519820331
 C         2.8406028111       -6.7175330398        2.7723874761
 O         4.8587437603       -4.7846198965        0.3836037909
 O         1.1426689531       -5.1466260095        1.9128458099
 C         1.3408151346       -5.7705036773       -0.7676524364
 C         3.5762419698       -7.0597203895       -0.1058066250
 H         6.0419794020        3.9367937052       -8.0353170862
 H         5.9135523218        2.2854422307       -8.5847224797
 H         4.5655675512        3.2576570673       -8.3286157235
 H         3.0662816459        1.6867028549       -4.1085466209
 H         2.2892182125        3.0858282650       -3.5714968380
 H         6.2114133091        3.0785639445       -4.0344131562
 H         5.0458038388        1.8714884886       -3.9695528259
 H         4.6120218936        3.5183917716       -3.4016724081
 H         4.4436919775        5.5381017027       -4.9772981908
 H         6.1044663297        4.8652794929       -5.3918877544
 H         4.8317377172        5.2572042543       -6.6101476278
 H         1.2675572918        1.2630473863       -5.7328482354
 H         0.6764464449        1.2434944048       -4.0873247846
 H        -2.0144620055        0.5850388250       -8.0262004398
 H        -0.7226501101        0.1608047367       -7.0790747104
 H        -2.9490273073        4.1471589606       -6.6334638887
 H        -1.9322249953        4.7598880015       -5.4571795549
 H        -2.9910405447        3.5768438954       -5.0007343716
 H        -1.4005998348        3.5161049412       -8.0859505163
 H         0.0405331937        3.9727801543       -7.3942791960
 H        -0.0810269014        2.2984138819       -7.8314813271
 H        -2.4517857565       -1.6223932629       -7.4451169011
 H        -3.6230146728       -0.8289062346       -6.1794376508
 H        -2.6528154716       -1.6404228320       -1.1214419440
 H        -1.5226160148       -1.1662167455       -2.4226259903
 H        -4.0940770824       -3.1041631933       -5.8524919022
 H        -4.2507405397       -4.0640501784       -4.3671981687
 H        -2.8861576029       -4.3109774944       -5.5640876602
 H        -1.1625391756       -4.2470736436       -4.3028200777
 H        -0.7283236183       -2.8478906692       -3.4476010358
 H        -1.9682166425       -3.7955674826       -2.6404660178
 H        -2.5423076414        1.0313053067       -2.4332677911
 H        -3.8868455513        0.4735828458       -1.5744309166
 H        -2.9025682521        4.2165642406        1.7659870718
 H        -3.8737615665        2.5730847915        1.6636008745
 H         0.3800523106        1.7077175594       -0.8388989813
 H         0.1774377732        3.3404845960       -0.0824018628
 H        -0.3212487069        2.9382871187       -1.8437779866
 H        -2.4903982155        4.2062211808       -0.7213150879
 H        -2.7010462092        3.1254433243       -2.0407339250
 H        -3.7447195305        2.9346689910       -0.5709259308
 H        -3.2548367619        4.1163033932        3.7588317069
 H        -1.9533437286        2.8388919830        3.8928154723
 H        -2.0954361073        0.5129161026        7.1647859546
 H        -3.3744528927        0.5449081923        8.2241478164
 H        -2.2576316004        2.5318227450        6.2524132476
 H        -3.5414516968        2.7410594137        7.6041742954
 H        -3.4181942459        3.8625837479        6.2390693262
 H        -5.4778458930        3.7220906488        5.0405873852
 H        -6.3756624537        2.1674418126        5.3891683419
 H        -5.7024619108        3.1152759462        6.6859021738
 H        -3.1583513165       -1.7763792045        8.2863678772
 H        -4.2392516957       -1.7831717132        6.9646673947
 H        -0.0721088730       -3.8582186404        4.8816105555
 H         0.2886749527       -3.3705841102        3.2322622429
 H        -3.6251323641       -4.4947095597        5.5336083360
 H        -1.8759983408       -4.7025694182        5.6500029615
 H        -2.5361479518       -4.5869439744        4.1298797362
 H        -3.6451101220       -1.0099770245        4.0153954520
 H        -4.1123074152       -2.7339773296        3.5258853848
 H        -4.6458993934       -2.0671753846        5.0500826233
 H         2.1541765296       -2.8744129643        5.0729415639
 H         1.0658065735       -1.8821829768        5.9845406172
 H         4.5891146312       -1.8306396633        0.7012053301
 H         4.1633561671       -2.9466613175        2.0675382381
 H         4.0614943524        1.2851854785        3.4830068780
 H         2.3286280451        1.5558299875        3.4362979338
 H         3.2729886335        1.2156972103        1.9267870212
 H         4.2012261566       -0.4186139002        4.8986389456
 H         3.9635032831       -2.0654693946        4.4325436076
 H         5.0623169899       -1.3072645994        3.5809330294
 H         1.9239864862       -3.4397440437        0.7987265768
 H         2.8048120192       -2.7361731100       -0.6351734620
 H         3.9117230234       -6.7329079962        2.8376981816
 H         2.4144262252       -6.5259525433        3.7163126568
 H         2.7313569025       -7.6813429573        2.3424301020
 H         1.3785940043       -5.0497964712       -1.5960185020
 H         0.4890350356       -5.6434854552       -0.1993714968
 H         1.4340634536       -6.7171269924       -1.3294947499
 H         2.9794856593       -8.0483919412        0.0709819344
 H         3.8046816101       -6.8578773707       -1.1407717528
 H         4.4019637969       -7.1087000435        0.6129614660
 Na       -0.2073278595        0.0928774289        2.0021367833
