155

 C         5.3992881993        3.1131326647       -7.7789746501
 C         5.4540926260        2.6440251496       -6.3217269841
 C         4.7415206515        3.5504208299       -5.2104811847
 C         3.1975476837        3.2759490774       -5.4785377770
 C         2.3299347879        2.4988828178       -4.4718770810
 C         5.1682328706        3.1575468968       -3.8152234210
 C         5.1654610389        4.9610538886       -5.5166842585
 O         5.9418036789        1.5844843698       -5.9314400505
 O         2.7920908839        3.6949571018       -6.5596697668
 C         0.8999257834        2.0222020685       -4.7861359466
 C        -0.1298439032        3.1131795305       -4.8989633671
 C        -1.3225674944        2.7245475878       -5.9016840753
 C        -1.7091285383        1.1780247458       -5.7700700284
 C        -1.9760329862        0.2281067058       -6.9070993067
 O        -0.1854385346        4.0908428911       -4.1729330550
 O        -1.9585029527        0.8230297214       -4.6404117939
 C        -2.4833460979        3.6543081543       -5.7135517589
 C        -0.6772906257        2.9518690306       -7.2618704479
 C        -2.6117223773       -1.0658543601       -6.5170234387
 C        -1.7144384910       -1.8394077112       -5.4878095838
 C        -2.5746253390       -2.6935158986       -4.4230922301
 C        -3.1394865669       -1.6692578951       -3.4014590634
 C        -2.3790702322       -1.2470413109       -2.1389836104
 C        -3.8184637358       -3.3935872867       -4.9967188986
 C        -1.6111957564       -3.6531590128       -3.6634740725
 O        -0.5055830071       -1.6479077473       -5.2923557431
 O        -4.2859101963       -1.2447474490       -3.5223734371
 C        -2.7484495848        0.2063210133       -1.7602751721
 C        -2.1019201430        0.6485282713       -0.4927580041
 C        -1.8350873496        2.2043505546       -0.2983118467
 C        -1.8596263003        2.4407282117        1.2635601737
 C        -3.1758596711        2.9696436238        1.8373539022
 O        -1.5971764816       -0.1628336697        0.2267046530
 O        -0.9349567513        2.2605395250        1.9876464265
 C        -0.3870950141        2.5292848763       -0.8109654515
 C        -2.8027542218        3.0966065814       -1.0154784330
 C        -3.1215824150        3.0237607470        3.4584858313
 C        -3.9813936327        2.0126360588        4.1871440455
 C        -4.2404983444        2.1054117424        5.6768479383
 C        -4.4092856831        0.6610105686        6.3756485374
 C        -3.2135949018        0.0154996482        7.0249646810
 C        -3.1723585684        3.0396242088        6.2846283459
 C        -5.6679159295        2.6839884252        5.8363605459
 O        -4.4192702599        1.0211897279        3.5940894171
 O        -5.4556972755        0.1393146795        6.4406874448
 C        -3.2820752384       -1.4749759425        7.2688586495
 C        -2.3222428162       -2.2526776351        6.4150733761
 C        -2.5444141089       -2.6532931788        4.7740647636
 C        -1.2741046955       -1.9428722946        4.0600434999
 C         0.0293197192       -2.7559851719        3.9210799551
 O        -1.2700543974       -2.6511553952        6.8189119013
 O        -1.3598199515       -0.8412882847        3.5170090426
 C        -2.5290157432       -4.2313811303        4.8402754223
 C        -3.7957630006       -2.0360212583        4.0585140870
 C         1.1820108412       -2.1352052250        4.6556450035
 C         1.5874177044       -0.7327785188        4.1484285247
 C         2.8431962947       -0.6267224479        3.2496087669
 C         2.6378737093       -1.3149005322        1.8904249118
 C         3.5723221434       -2.3083340485        1.3596383964
 C         3.0625633781        0.8794917365        2.9326124776
 C         4.1380750274       -1.1777447025        3.9284646262
 O         0.9209302689        0.2489385262        4.2671069909
 O         1.7716338167       -0.8601887089        1.1142555312
 C         3.0777798831       -3.0839710279        0.1936773574
 C         3.6861688955       -4.4948092161        0.2119085040
 C         2.6713354336       -5.8719863949        0.1590367777
 C         2.0952122745       -5.8837123591        1.7002475916
 C         2.8334085300       -6.6854538534        2.7742843479
 O         4.8781524933       -4.6501477290        0.1721414255
 O         1.0125458869       -5.3068590940        1.9008513127
 C         1.6424450263       -5.5072081502       -0.8865825061
 C         3.5747705136       -7.1530728262       -0.1171808180
 H         6.1350679014        3.8800582681       -8.0336475260
 H         5.4300378379        2.2032300898       -8.4451346393
 H         4.4511014191        3.6341736921       -8.0495884314
 H         2.8926149252        1.5935454051       -4.2160502105
 H         2.3268278645        2.9837933572       -3.4744249898
 H         6.2159728348        2.9385608191       -3.7292292490
 H         4.7433953124        2.1330396968       -3.5444723720
 H         4.8277305231        3.9034733083       -3.0630675346
 H         4.7903873604        5.5668220875       -4.7392458769
 H         6.2127348780        4.9718284740       -5.7149627050
 H         4.6802942822        5.4478830802       -6.4155113024
 H         1.0621165579        1.3649424448       -5.6714690323
 H         0.6040438557        1.3245674439       -3.9938133310
 H        -2.6841548107        0.7381524512       -7.6020724714
 H        -1.1502045591        0.1071423277       -7.5468386662
 H        -3.2453944446        3.4962839265       -6.4798906811
 H        -2.3195832847        4.7220682823       -5.8786850060
 H        -2.9357266527        3.4817570899       -4.7129946965
 H        -1.2268479717        2.4813244834       -8.1008663870
 H        -0.6098743419        3.9732729482       -7.5974993360
 H         0.3274176880        2.5240462194       -7.3365727936
 H        -2.5699381100       -1.6767289981       -7.4281903085
 H        -3.5318062881       -0.9942439638       -6.0263386308
 H        -2.6640342636       -1.9781049458       -1.3722956467
 H        -1.2728402113       -1.2729747179       -2.4275939729
 H        -4.7653817112       -2.8597517305       -4.7031525494
 H        -3.8944996845       -4.3456365803       -4.6429415347
 H        -3.7184460652       -3.5022267695       -6.0827562477
 H        -1.5472784888       -4.5222658171       -4.2884680412
 H        -0.5647645620       -3.3636839233       -3.4522591301
 H        -2.0356460491       -3.8355620229       -2.6870852820
 H        -2.3498662104        0.8248534890       -2.6241694719
 H        -3.8781873470        0.4825927414       -1.7716270733
 H        -3.2967008949        3.9589515547        1.4709993008
 H        -4.0111945814        2.2885610523        1.5542737398
 H         0.3294156500        1.9845021620       -0.2080564476
 H        -0.3168733807        3.6317255272       -0.9390854704
 H        -0.1804802129        2.0690436910       -1.6888934748
 H        -2.5974495199        4.1806734870       -0.9361907398
 H        -2.5734927007        2.8913585713       -2.0416143874
 H        -3.8082152072        2.7617742565       -0.7101555203
 H        -3.5100832381        4.0510370337        3.6512409124
 H        -2.0564021227        2.9831203714        3.6374257150
 H        -2.3198566609        0.3014614140        6.5706591762
 H        -2.9908376318        0.5864795893        8.0267943797
 H        -2.2137600879        2.6025929724        6.0924059900
 H        -3.4106789957        3.0883670537        7.3189151741
 H        -3.1090802211        4.0638258241        5.8746667419
 H        -5.6561159998        3.6081721689        5.2204833592
 H        -6.3123904099        1.9242442594        5.3885726341
 H        -5.9763715517        2.9795932022        6.8411272304
 H        -3.2033390095       -1.7828289635        8.3118976096
 H        -4.2745997183       -1.8661933901        6.9487933887
 H        -0.0433940811       -3.8119258320        4.2386469948
 H         0.2381505101       -2.8211424500        2.8662739786
 H        -3.4137331189       -4.5731849272        5.3576671237
 H        -1.6730584312       -4.6153429023        5.3276263446
 H        -2.6161535209       -4.7936216628        3.8854740347
 H        -3.9901516297       -1.0051893117        4.4380946874
 H        -3.5034928641       -1.9403523728        3.0092529361
 H        -4.6630723318       -2.6060510739        3.9956056280
 H         2.0500892233       -2.7539911602        4.4314894364
 H         1.0760948187       -2.1649815853        5.6859232719
 H         4.4518897762       -1.7323765919        1.1133766191
 H         3.7983774327       -3.0376435794        2.1636763135
 H         3.4562028645        1.4431239149        3.7461536624
 H         2.1155012816        1.3183181780        2.8190974227
 H         3.7076670779        1.1165011617        2.0925504158
 H         4.2174183985       -0.6086333196        4.8721222986
 H         4.3131326865       -2.2526904311        4.0209375755
 H         5.0183338149       -0.9666131094        3.3473697061
 H         2.0256387152       -3.1367833944        0.2971670440
 H         3.3716912855       -2.5561814679       -0.7602737969
 H         3.6122864933       -6.0340609031        3.2132830101
 H         2.1429668706       -6.7185644452        3.6430388339
 H         3.4554780044       -7.5265802206        2.4692846473
 H         1.9546223634       -4.7412689692       -1.5325313550
 H         0.6958081752       -5.2742946474       -0.3467046368
 H         1.5314201470       -6.2859329777       -1.6180249831
 H         2.9947757595       -7.9666853793        0.1428970451
 H         3.8148044652       -7.1170478767       -1.1414631780
 H         4.3952804689       -7.1779838508        0.5593604502
 Na        0.1761447472        0.2328080744        1.8733676319
