155

 C         5.4170319860        3.0368218146       -7.5304970458
 C         5.5360165187        2.7080615055       -6.0795076571
 C         4.7698186991        3.6743940217       -5.0348512661
 C         3.2265824633        3.4631687676       -5.2115704004
 C         2.4648748181        2.6531689773       -4.1705449787
 C         5.3326337378        3.3768017320       -3.6144467968
 C         5.0078366999        5.1912061225       -5.3245901851
 O         6.0083923199        1.6765257493       -5.6117599995
 O         2.6029872829        3.9159744955       -6.1448859673
 C         1.1107237811        2.1280647996       -4.8268228870
 C        -0.0880044741        3.0354857777       -4.9504151395
 C        -1.2266267783        2.6173172167       -5.9173910485
 C        -1.5019359970        1.1796181430       -5.5914720793
 C        -1.9927655807        0.2903215014       -6.7520810012
 O        -0.3067868502        3.9428871867       -4.1979479234
 O        -1.5097222314        0.7165338632       -4.4398946559
 C        -2.6066047955        3.2991308881       -5.6441095682
 C        -0.8310077291        2.8513113006       -7.3572081842
 C        -2.6825525311       -1.0627873536       -6.4454402610
 C        -1.8586393371       -1.8475046545       -5.3127201899
 C        -2.6544716176       -2.8723397825       -4.3898494025
 C        -3.2464446091       -1.7406827754       -3.3110247927
 C        -2.1786623708       -1.3174749369       -2.3033450851
 C        -3.7133119717       -3.4809450440       -5.2548814341
 C        -1.6446254179       -3.9081336374       -3.8171821926
 O        -0.7034105674       -1.6982216555       -5.2181769917
 O        -4.2469520763       -1.1348910935       -3.4829898564
 C        -2.6903235953        0.0139390532       -1.7213717271
 C        -1.9785126117        0.5809643884       -0.4819371480
 C        -1.8530088599        2.1869025999       -0.2758471680
 C        -2.0960645888        2.5029845746        1.1995504088
 C        -3.4323517108        2.7197488127        1.8401567528
 O        -1.3973486599       -0.1797582488        0.3277535287
 O        -1.1301191717        2.3611100891        2.0054714296
 C        -0.4629645257        2.4781900695       -0.7973950479
 C        -3.0053975627        2.8662554962       -1.1584850935
 C        -3.4173929379        2.9339339127        3.3325549532
 C        -4.0177033678        1.8197338003        4.1523788552
 C        -4.3204994862        2.1444578729        5.7243013922
 C        -4.3316657759        0.7721792021        6.3199433755
 C        -3.0594991636        0.0544868043        6.6334994048
 C        -3.2256084473        3.0315347097        6.4675768709
 C        -5.6845440972        2.9778297717        5.8547943889
 O        -4.3800362248        0.7776680577        3.6360771062
 O        -5.4151166278        0.0989065525        6.3429932862
 C        -3.3454601565       -1.4731943202        6.8883123917
 C        -2.1994208568       -2.3886518746        6.2376257585
 C        -2.5031942958       -2.6472477528        4.6516380348
 C        -1.3514896014       -1.8656817921        3.8347968957
 C         0.0508041831       -2.5385774899        3.5304621536
 O        -1.3218268696       -2.9377420946        6.8948139758
 O        -1.5462270102       -0.7598666012        3.3801517449
 C        -2.4354047321       -4.1243508136        4.1815796037
 C        -3.9158578621       -2.0952240526        4.2621310181
 C         1.1941420976       -2.0730704985        4.4921424886
 C         1.6740710991       -0.6649591073        4.0281903094
 C         3.0939312230       -0.4025474409        3.1522301707
 C         2.7692352472       -1.1718382252        1.8031549878
 C         3.5569597182       -2.5076965039        1.5452025824
 C         3.2897597666        1.0842981565        2.9541869928
 C         4.1513634641       -1.0649309980        4.0273589530
 O         0.9388300106        0.2959016167        4.2905136541
 O         1.7758704740       -0.9341515480        1.1677673290
 C         3.1329972275       -3.0830072785        0.1287455458
 C         3.8363524409       -4.5729335298        0.0745297689
 C         2.8674569618       -5.7680574440        0.1375802068
 C         2.0851504079       -5.8122129764        1.5798021439
 C         2.8437799719       -6.4832161086        2.6673005458
 O         5.0357305843       -4.7546549207        0.0841125783
 O         1.0015005404       -5.3267010324        1.7564420568
 C         1.6627921852       -5.6054650793       -0.9065062471
 C         3.6166998258       -7.1071108504       -0.2455293727
 H         6.1651576907        3.7731294638       -7.8437889379
 H         5.3100280006        2.1947689309       -8.2182385384
 H         4.5183048805        3.6642581168       -7.6925539426
 H         3.0054978481        1.8756648369       -3.6556807673
 H         2.0623195545        3.2487762338       -3.3877501889
 H         6.2145547091        4.0493722778       -3.4826758435
 H         5.6883526497        2.4184395563       -3.3687477291
 H         4.5866149847        3.6551095046       -2.8849605109
 H         4.5615728116        5.7434600379       -4.4445356624
 H         6.0580635409        5.3874570636       -5.6626164931
 H         4.4631776627        5.5692551465       -6.1366573850
 H         1.4620412596        1.6934899670       -5.7408690453
 H         0.8675770341        1.2668925809       -4.2501883303
 H        -2.6685493919        0.8951824894       -7.3835728446
 H        -1.0537683728        0.1731469877       -7.4079773929
 H        -3.4533591380        2.9817534209       -6.2865232908
 H        -2.5907775749        4.3599379682       -5.9814240826
 H        -2.8974520097        3.2260011812       -4.5841445199
 H        -1.4069151348        2.3754998197       -8.1349984754
 H        -0.8816343478        3.9306299998       -7.5448746392
 H         0.1689501196        2.5687895159       -7.7002067968
 H        -2.6817988529       -1.7499698833       -7.2652930244
 H        -3.6470694691       -0.8901291398       -5.8908782271
 H        -2.0621569250       -2.2195378585       -1.6902831924
 H        -1.3221892444       -1.1175427353       -2.8875191413
 H        -4.6357567640       -3.0169942812       -5.0805877488
 H        -3.8485291827       -4.6134159854       -4.9699931272
 H        -3.4467411730       -3.5593771787       -6.2981866104
 H        -1.2584512596       -4.4140356487       -4.7061620079
 H        -0.8575874710       -3.5215132205       -3.2321871872
 H        -2.0881830883       -4.5718039834       -3.0995956804
 H        -2.6344044881        0.6600570407       -2.5741525238
 H        -3.7122309558        0.0198099479       -1.4815806558
 H        -3.8908625725        3.5852970117        1.3168641479
 H        -4.0256147219        1.8186716215        1.7453784253
 H         0.2816137798        2.3952776100       -0.0213743653
 H        -0.5686928518        3.3213621832       -1.4744201399
 H         0.0407475611        1.6341286694       -1.4240008963
 H        -3.0318324072        3.8746472536       -0.7540601561
 H        -2.6866470725        2.9799983458       -2.2088570522
 H        -3.9408760754        2.4003237991       -0.8886764201
 H        -3.8846607577        3.9251992389        3.5234003513
 H        -2.3095442747        3.0292912586        3.6024887135
 H        -2.3754297352        0.2784981798        5.7363518891
 H        -2.5007040789        0.4697014194        7.3569405895
 H        -2.2166788664        2.6608036929        6.2359917960
 H        -3.3769369834        3.1411854942        7.5748694189
 H        -3.2229386481        3.9549233312        5.9904735939
 H        -5.5856651064        4.0598244081        5.7343112416
 H        -6.4110651721        2.4677632925        5.2391389133
 H        -5.9577281944        2.9138577224        6.9378239192
 H        -3.2805456621       -1.7435851293        7.9634374421
 H        -4.4251720725       -1.5808935931        6.7560981961
 H        -0.0770999756       -3.5856342490        3.6720797606
 H         0.2736699908       -2.5057282823        2.4360429338
 H        -3.2982395224       -4.7926688170        4.3640533518
 H        -1.5064466086       -4.6492857232        4.5521478910
 H        -2.4715295582       -4.1975272294        3.1039433834
 H        -4.0412069617       -1.0427508166        4.5310745597
 H        -4.1200722997       -2.1554703810        3.2213245480
 H        -4.6373417882       -2.7643117166        4.7604578929
 H         2.0654892128       -2.7530791671        4.6061685416
 H         0.6788269790       -1.9185486399        5.5254567487
 H         4.6506706118       -2.4599769933        1.6828211940
 H         3.1556638228       -3.2172001449        2.2406071837
 H         2.7990348195        1.7002527103        3.6877526732
 H         2.9460209358        1.5125261492        1.9901515448
 H         4.3426233031        1.3336450190        3.0792332947
 H         4.0638501587       -0.6921206084        5.0242388344
 H         4.0192047084       -2.1706305271        3.9763086993
 H         5.2151679427       -0.9743477215        3.7378393630
 H         1.9797706424       -3.0182231055        0.0910535096
 H         3.5267396130       -2.5505304472       -0.7052174005
 H         3.6503415019       -6.0442445143        3.2492592333
 H         2.1619747884       -6.8339704332        3.4062260714
 H         3.3523714310       -7.2752500766        2.0985665373
 H         2.0475238698       -5.5931802194       -1.9758217247
 H         1.0066373968       -4.7521440506       -0.6292929112
 H         0.9891502926       -6.4961470058       -0.9218206718
 H         2.9344114439       -7.9770881535       -0.1174719891
 H         3.9971647121       -6.9053584376       -1.3126551543
 H         4.5400901564       -7.2517069242        0.3770266861
 Na       -0.1798277338        0.4223831991        2.1204839295
