155

 C         6.7475711005        4.5792845819       -4.3033445865
 C         5.5171169608        4.4494930455       -3.3936558951
 C         4.1730886840        5.3251507745       -3.6737401156
 C         3.1002489065        4.1492269834       -4.1154189879
 C         2.6165366199        3.2493653534       -2.8626390276
 C         3.8552232179        6.0538776783       -2.3337472494
 C         4.3874581161        6.2388782469       -4.9597229970
 O         5.5404235346        3.5290327070       -2.5794864741
 O         2.6269434580        3.9657246547       -5.2136468645
 C         1.6658179773        2.1420511217       -3.3668928475
 C         0.3343232656        2.7002408751       -3.9958189138
 C        -0.3577293554        2.1569279942       -5.3336547835
 C        -1.1701246766        0.8758964626       -4.9300499659
 C        -1.8103159555       -0.0382169567       -6.0866806752
 O        -0.2642662850        3.4940028052       -3.3052605057
 O        -1.3517842649        0.6494742253       -3.7484892480
 C        -1.1421494904        3.3390445315       -5.9168275269
 C         0.7777878453        1.8830380047       -6.3961927014
 C        -2.6681945658       -1.1584292191       -5.5487039206
 C        -1.9415832557       -2.1575286556       -4.7184608519
 C        -2.7306115593       -3.4154168393       -4.1167116214
 C        -3.6046907816       -2.7876663898       -2.9689327889
 C        -2.9336231853       -2.0608219588       -1.8549084731
 C        -3.6251389396       -4.1584579400       -5.2018934665
 C        -1.7170360608       -4.3370206453       -3.5232588152
 O        -0.7783159492       -1.9595022470       -4.4814040041
 O        -4.8575325429       -2.8086811979       -3.0413368030
 C        -3.2829051870       -0.5208830527       -1.9132093946
 C        -2.2405181297        0.3855987970       -1.2320101885
 C        -2.5884762814        1.8069401932       -0.7670002604
 C        -3.1740081157        1.5135059792        0.6982058780
 C        -4.5433116519        2.0277767511        1.2171853212
 O        -1.1660733300       -0.0388222095       -0.9440620380
 O        -2.5135045866        0.8981182325        1.5105778391
 C        -1.3517271610        2.6803336234       -0.5847505961
 C        -3.5834930475        2.4432998046       -1.8063978307
 C        -4.4321000394        2.7336988303        2.6241288173
 C        -4.7714847047        1.7285467868        3.7903210939
 C        -4.2610543253        1.8630520151        5.2351710440
 C        -3.8028161240        0.6398859828        6.0174597756
 C        -2.9773801773       -0.5088054198        5.3641732284
 C        -3.0943193730        2.8519152528        5.3357996047
 C        -5.4328443466        2.3271540534        6.0501291483
 O        -5.4193929775        0.7220812023        3.5015944652
 O        -3.9142100982        0.5088723969        7.2233846425
 C        -3.6249162535       -1.4371636184        4.2828288097
 C        -2.7142473814       -2.6606825493        4.2633143556
 C        -1.8626245537       -3.2819557688        3.0141110137
 C        -0.3304310784       -2.7271552804        3.0752844796
 C         0.4501196031       -2.9435920929        4.4009370414
 O        -2.5768326230       -3.1573339190        5.3706538577
 O         0.1668295304       -2.2028234871        2.0771030980
 C        -1.8599957244       -4.8616203122        3.2909007361
 C        -2.4412543892       -3.1554857423        1.5746212338
 C         0.7111250987       -1.5183124108        5.0358423683
 C         1.0943080644       -0.5196651225        3.9847497924
 C         2.5085021238       -0.4633899767        3.3742249849
 C         2.5905551125       -0.7855263408        1.8462341560
 C         3.6245695796       -1.9037422079        1.5034625851
 C         2.9316854686        1.0282785763        3.3848432332
 C         3.6092517554       -1.0973399648        4.2827248964
 O         0.2816940868        0.3234606760        3.6757769448
 O         1.9775436653       -0.0458181787        1.0864452167
 C         3.2643201656       -2.4322807920        0.1085618621
 C         4.0845880165       -3.6068159040       -0.3224575867
 C         3.3376463147       -4.9851316871       -0.4205324850
 C         2.7077787338       -5.3689172249        1.0003811863
 C         2.6172273477       -6.9124484155        1.4121075453
 O         5.2791245712       -3.5753401954       -0.5722208873
 O         2.2942390259       -4.4840212339        1.7347148759
 C         2.1038588123       -4.7710198822       -1.3039540141
 C         4.1778652172       -6.1031936492       -1.0428881774
 H         7.2081750803        5.5121788890       -4.4008618664
 H         7.5172488222        3.8936151040       -3.9741800545
 H         6.5465048180        4.3650022708       -5.3880243401
 H         3.4879985291        2.7994640129       -2.3541669400
 H         2.2235962196        4.0042875902       -2.2206165911
 H         4.5440975063        6.9265550073       -2.2836300380
 H         3.8006858262        5.5133269046       -1.4373244418
 H         2.8861106965        6.5257472469       -2.4019901970
 H         3.6817960997        7.0841902734       -4.9464119042
 H         5.4401332695        6.6059305349       -5.1183957024
 H         4.3229252953        5.6640614755       -5.8330058682
 H         2.1415220468        1.4882020188       -4.0244050601
 H         1.3620412686        1.6078364432       -2.4561020771
 H        -2.5512746137        0.6087725289       -6.6062817408
 H        -1.1474253881       -0.3310443051       -6.8689877751
 H        -1.4084810068        3.2273504137       -6.9340706630
 H        -0.4836134751        4.1955263136       -5.8835872908
 H        -1.9829055383        3.5500718096       -5.3251241926
 H         0.2872466302        1.5367259819       -7.2991124142
 H         1.3647294916        2.8065819463       -6.4353291667
 H         1.4053156361        1.0212469169       -6.1555972289
 H        -3.3186807260       -1.6135985812       -6.3250059661
 H        -3.3986152304       -0.7079623129       -4.9130545186
 H        -3.3649560336       -2.4974913292       -0.8635324973
 H        -1.8698480060       -2.2580604441       -1.9651048653
 H        -4.6134982163       -3.7799571010       -5.2987735308
 H        -3.6933901081       -5.1858301358       -4.8850652010
 H        -3.0371315940       -4.3017142122       -6.1314222908
 H        -0.9832617374       -4.5468975916       -4.3098344641
 H        -1.2539740030       -3.9790836337       -2.6196395774
 H        -2.1468764158       -5.2524592559       -3.1051945475
 H        -3.3587151334       -0.2733380239       -3.0215400252
 H        -4.2818792327       -0.3837493726       -1.4592488999
 H        -5.1769821087        2.6821800998        0.5122096645
 H        -5.0820180007        1.1779393858        1.4833754823
 H        -0.5355882432        2.1818622339       -0.1921942671
 H        -1.5423465507        3.5515878820        0.1195157187
 H        -1.1436031123        3.1878772282       -1.5027164459
 H        -4.1389694821        3.3294909182       -1.5300797469
 H        -3.0665387410        2.3680235140       -2.7693939912
 H        -4.3275608528        1.6542540662       -1.8183911088
 H        -5.1861269472        3.4647289762        2.6169959228
 H        -3.4053135067        3.1351540317        2.7573086868
 H        -2.2611950199        0.0632253797        4.7308075632
 H        -2.4487932574       -1.0680757402        6.0253205090
 H        -2.2594189326        2.6483368790        4.6169718597
 H        -2.5506075801        2.8817365788        6.3415674047
 H        -3.4088231617        3.8169650143        5.1617758373
 H        -5.6295675736        3.3696311840        5.9937978072
 H        -6.2281970327        1.7098815655        5.7889326358
 H        -5.0517760009        2.2170938302        7.0720564833
 H        -4.6533466713       -1.7512790657        4.5710763677
 H        -3.6776952609       -0.9007481854        3.3199833243
 H        -0.1184900872       -3.5322520328        5.0791617170
 H         1.2988303589       -3.5090506109        4.0602605378
 H        -2.7982471684       -5.3040986465        2.9651850591
 H        -1.8447597962       -5.0655050428        4.3662280941
 H        -1.0703353103       -5.2736423975        2.7362139130
 H        -2.7045748197       -2.0931532702        1.1951087560
 H        -1.6203785488       -3.4012165638        0.9230814581
 H        -3.2700080268       -3.8698708072        1.4111462480
 H         1.4938394099       -1.4916803423        5.7809623595
 H        -0.3128822562       -1.2672614175        5.3503035633
 H         4.6101220256       -1.5156825781        1.5413671061
 H         3.5206254112       -2.7241378025        2.2736672268
 H         2.1087068362        1.7050433468        3.3248388782
 H         3.5790916079        1.0504443651        2.4673547178
 H         3.5689976584        1.3867307589        4.2372754095
 H         3.6086732031       -0.5578069314        5.2031471612
 H         3.5902717529       -2.2259276969        4.5227920061
 H         4.5224395653       -0.7137531018        3.8358216824
 H         2.2014460329       -2.7476901397        0.1512227341
 H         3.4077043300       -1.6597939407       -0.6579576295
 H         3.5908659251       -7.3078681013        1.1225972571
 H         2.6467953791       -6.9840203820        2.4674309826
 H         1.9667861391       -7.5252522172        0.8113613645
 H         2.4880198747       -4.3825731089       -2.2606981060
 H         1.3905322905       -4.1128428186       -0.8351849087
 H         1.5332581656       -5.6317670040       -1.5632756394
 H         3.6846402994       -7.0087200026       -1.1027212577
 H         4.6010575587       -5.7451599463       -1.9663502537
 H         5.0828153621       -6.2789822359       -0.4722211269
 Na       -0.2466055290        0.1466269722        1.1569576823
