155

 C         6.6845255036        5.2617994366       -3.4595721103
 C         5.3339999219        4.7533622156       -2.9126683469
 C         3.9545401686        5.2851194749       -3.5299615182
 C         3.2730898614        4.0316175168       -3.9165076917
 C         2.4331761904        3.2692894105       -2.6716583976
 C         3.2208937985        6.0806292462       -2.3833276682
 C         4.0565201255        6.2270250322       -4.7997954601
 O         5.1997964788        4.2606438435       -1.8393897738
 O         3.3349694841        3.5989017821       -5.0380693048
 C         1.5741002778        2.1692633490       -3.2611086433
 C         0.3484822502        2.7790097813       -3.9856390671
 C        -0.1055895609        2.0814955984       -5.3467435987
 C        -1.2169549422        1.0889967067       -4.9364701578
 C        -1.3406154442       -0.0474556539       -6.0618111121
 O        -0.2852609222        3.6224928828       -3.4203694727
 O        -1.8902539460        1.1164036338       -3.9087637017
 C        -0.8008222493        3.0913676027       -6.3488641068
 C         1.1452938855        1.5087020846       -6.2008242606
 C        -2.2081935551       -1.1897151055       -5.6403013648
 C        -1.6584133240       -2.2215272471       -4.6640447683
 C        -2.6998772226       -3.3825757627       -4.3287846904
 C        -3.6697862527       -2.8731365243       -3.1893645941
 C        -3.1118758833       -2.2089938045       -1.9017652314
 C        -3.5209810621       -3.8350315593       -5.5798119166
 C        -1.8207348131       -4.6360080232       -3.8460687460
 O        -0.6138258735       -2.0147041028       -4.1026370543
 O        -4.8573780148       -3.1356466615       -3.4308641082
 C        -3.4007344300       -0.7014180373       -1.7869574500
 C        -2.4355842966       -0.0469800000       -0.8548529381
 C        -2.6915461468        1.5110158054       -0.4991416060
 C        -3.1991890173        1.5160452020        0.9549579486
 C        -4.5012588534        2.2476000478        1.2510612389
 O        -1.3869102665       -0.5425233601       -0.5098855807
 O        -2.5349086037        1.1088739993        1.8979961082
 C        -1.3336789371        2.3261923893       -0.6342330496
 C        -3.7049211272        2.2770075747       -1.4777852541
 C        -4.7004947557        2.7049707543        2.6740606396
 C        -4.8292243873        1.5831332837        3.7006529575
 C        -4.2201329643        1.8080234820        5.1044325002
 C        -3.7804492190        0.5262359322        5.7538408591
 C        -2.5437980619       -0.2943668403        5.1215237167
 C        -3.0340765564        2.8355925859        5.1401510052
 C        -5.5020766733        2.3719874149        5.9165777624
 O        -5.5165328945        0.6352792298        3.3665125233
 O        -4.3395338389        0.0413038488        6.7421793989
 C        -2.8676747236       -1.3169274786        3.9858733665
 C        -2.4945833274       -2.8614190124        4.1418250717
 C        -1.7619732601       -3.5043940751        2.9186516022
 C        -0.3402047802       -2.7409229236        2.9438201070
 C         0.7186078982       -3.0062405036        4.0879973024
 O        -2.6372934167       -3.4579176303        5.1712049719
 O         0.0294868271       -1.9934870370        2.0144340448
 C        -1.5689596417       -5.0715641486        2.9997249922
 C        -2.5366060434       -3.2612486902        1.6127223578
 C         0.7516237946       -1.6927866207        4.8927859819
 C         1.0340522703       -0.4354642000        4.0228415410
 C         2.4343986205       -0.1816318059        3.5771210869
 C         2.4622544808       -0.6445390253        1.9241403254
 C         3.5421679511       -1.7279317381        1.5839924856
 C         2.6855564048        1.3944966623        3.5521073333
 C         3.6267464340       -0.7732916016        4.3809274463
 O         0.1568252841        0.3454934409        3.6033509459
 O         1.7989430909       -0.0208159783        1.0834261277
 C         3.2586818191       -2.2405776285        0.1575934558
 C         4.0191435892       -3.4432889258       -0.4069323774
 C         3.3649070388       -4.8813162900       -0.5743164299
 C         2.9632477210       -5.4737553402        0.8105042011
 C         2.8612725772       -7.0443201092        0.8680034706
 O         5.1981543648       -3.4083406528       -0.4732736901
 O         2.6926334582       -4.7492272020        1.7602135289
 C         2.0518955660       -4.7647557056       -1.4252784698
 C         4.3877530402       -5.6994866031       -1.3835841333
 H         6.6782227033        6.2952473745       -3.4030963664
 H         7.4731772904        5.0135624508       -2.8455203726
 H         7.0144695053        5.0859980474       -4.4666369937
 H         3.2369951537        2.9761659043       -1.9082050509
 H         1.9083008936        4.0853470115       -2.2072183985
 H         3.5246060408        7.1470679888       -2.3846583844
 H         3.3209039298        5.6377405857       -1.4143233473
 H         2.1675884595        6.0704157932       -2.5575632456
 H         3.1593216913        6.2698162791       -5.4237069816
 H         4.2723807539        7.2422813105       -4.5491574342
 H         4.8584737585        5.8082644726       -5.4288618059
 H         2.1265887233        1.5837326411       -4.0022600262
 H         1.1479137130        1.4542936059       -2.4794464744
 H        -1.5785310186        0.3512192409       -7.0544677077
 H        -0.3618237200       -0.4371116338       -6.2447526833
 H        -1.4312689718        2.5624193027       -7.0518215082
 H         0.0763087217        3.5928221528       -6.8347025569
 H        -1.3437729461        3.9313990120       -5.8749155445
 H         0.8036360025        1.3626066909       -7.2201371136
 H         1.8391749865        2.3528158664       -6.1549009833
 H         1.6793850709        0.6722297505       -5.7266948194
 H        -2.5229320862       -1.7248155855       -6.5406199505
 H        -3.0750640840       -0.7774327799       -5.1999037619
 H        -3.6201559312       -2.6899376347       -0.9993836012
 H        -2.0324812918       -2.3200320119       -1.9018279977
 H        -3.9460810502       -2.8921725836       -5.9407429230
 H        -4.2720711269       -4.4711070521       -5.3435814675
 H        -2.8681445087       -4.1869426853       -6.4339099234
 H        -1.3516069637       -5.2263716968       -4.6561489296
 H        -1.0288831894       -4.2875588283       -3.1829348356
 H        -2.4122199474       -5.3618061094       -3.2776707639
 H        -3.2034910412       -0.1882685213       -2.7887477376
 H        -4.4117596221       -0.4029042780       -1.5018905710
 H        -4.6630404034        3.1820143736        0.5445622462
 H        -5.3129432924        1.5621044200        1.0708683462
 H        -1.1664873471        2.8772645140       -1.5198616561
 H        -0.3928926771        1.7499497497       -0.6686557037
 H        -1.4060785523        2.9865082352        0.1806967865
 H        -3.7805108046        3.3386093033       -1.0809891182
 H        -3.1944630323        2.2126277422       -2.4250264081
 H        -4.7124262979        1.9357985086       -1.6187403010
 H        -5.7013288158        3.2267985185        2.7373038180
 H        -3.8667054584        3.2864059432        2.8028366177
 H        -1.8223592497        0.4199195497        4.7117641515
 H        -2.0149172623       -0.8442203948        5.8044227288
 H        -2.1692429507        2.5843046013        4.4644288956
 H        -2.4799069376        3.0106289401        6.1183194954
 H        -3.4312363355        3.7732670594        4.8665649096
 H        -5.9030065193        3.3113022848        5.5081243557
 H        -6.2397813146        1.6078874648        6.0030613274
 H        -5.0112134195        2.7321954126        6.8657287411
 H        -3.9649110367       -1.4236196681        3.7653951336
 H        -2.4758918144       -1.0502942884        3.0163535207
 H         0.4459614905       -3.8265173760        4.6661898183
 H         1.7423164485       -3.2648521807        3.7634847413
 H        -2.5551110461       -5.4316264906        3.3727608043
 H        -0.8299072274       -5.2792228224        3.8017622335
 H        -1.3123611742       -5.5408038504        2.0294603371
 H        -2.4357913575       -2.2034019195        1.1716222547
 H        -2.2420923728       -3.9263192947        0.8363795666
 H        -3.6198099302       -3.2714507581        1.7680653712
 H         1.4308022410       -1.8397624427        5.7081826080
 H        -0.2715007772       -1.4797155232        5.2424595030
 H         4.4858477970       -1.2232658065        1.6620799453
 H         3.3934553015       -2.5803844137        2.3434121753
 H         2.4250794280        1.8526975708        2.6304799249
 H         3.7727557213        1.5738472753        3.7457211519
 H         2.0518157169        1.8535017448        4.3602360071
 H         3.5367186801       -0.4462526996        5.3646312577
 H         3.4120207032       -1.8508789686        4.5444158840
 H         4.5458871221       -0.5264049066        3.9732595192
 H         2.1841634140       -2.5371974238        0.1226932789
 H         3.4604149608       -1.4010144942       -0.4847496841
 H         3.7931805607       -7.2919371455        1.3124016425
 H         2.1646739454       -7.3375648701        1.6257406298
 H         2.8941825989       -7.5804667615       -0.0601255378
 H         2.1910879456       -4.1850812763       -2.3663807098
 H         1.3689779418       -4.0581317290       -0.8555742250
 H         1.5546330749       -5.7144248692       -1.4781160706
 H         3.9304579902       -6.6412227927       -1.7093096306
 H         4.6859906216       -5.3316429201       -2.3714497916
 H         5.3101346399       -5.8070335845       -0.8060890529
 Na       -0.5843254736        0.2426531299        1.5180446094
