155

 C         6.5917681423        5.5742406584       -3.1426287796
 C         5.2348661956        5.1426676034       -2.5495452471
 C         3.8372063077        5.5115217290       -3.3318323431
 C         3.2765538911        3.9787455602       -3.6830743490
 C         2.4953299394        3.2201704327       -2.5288064841
 C         2.8995137386        6.4030990528       -2.4878633205
 C         4.1787229423        6.1700283076       -4.6961465738
 O         5.1860842472        4.5159650185       -1.4837480963
 O         3.5424882721        3.4115112445       -4.7349490043
 C         1.5900973596        2.2306488834       -3.1578373698
 C         0.4651381551        2.7944698947       -4.0507123174
 C         0.0770291920        2.0610302907       -5.4503280202
 C        -1.1631477582        0.9923161610       -5.2905870207
 C        -1.0658472037       -0.2431831730       -6.1062883120
 O        -0.1622669147        3.7586040810       -3.6234490133
 O        -2.0163257038        1.1742876715       -4.4216858457
 C        -0.7225924975        3.2361505245       -6.1896422632
 C         1.3716612259        1.4449665458       -6.1638860199
 C        -2.1795801758       -1.2707646402       -5.8354782644
 C        -1.7688421002       -2.2518148076       -4.7154212926
 C        -2.7642291092       -3.4601423601       -4.3522603462
 C        -3.6825710716       -2.9252193698       -3.1871244557
 C        -3.1342692465       -2.3787131128       -1.8693767731
 C        -3.6221206606       -3.9241534223       -5.6556655016
 C        -1.7565377795       -4.5401579312       -3.8777225900
 O        -0.6507467199       -2.0742975727       -4.2427210554
 O        -4.8548252736       -2.9455971727       -3.3379787452
 C        -3.4817898363       -0.8904219726       -1.8002259341
 C        -2.6951745778       -0.0866750000       -0.7213311022
 C        -2.7477543827        1.4384443070       -0.5468693599
 C        -3.3070642638        1.7063361110        0.9730645364
 C        -4.7133904258        2.2993322253        1.1542274968
 O        -1.8590349792       -0.7453125308       -0.1482012406
 O        -2.6731510774        1.3805657759        1.9572608873
 C        -1.3205304791        2.0282197919       -0.5962462052
 C        -3.7823376002        1.9680205811       -1.6090832905
 C        -4.8757608799        2.8320998595        2.6846771285
 C        -4.7643794557        1.5510240470        3.5563429249
 C        -4.1796595468        1.6766611436        5.1104964018
 C        -3.8461269233        0.2133610946        5.6191647008
 C        -2.5502591718       -0.4730510282        5.2448332498
 C        -2.9849493196        2.6335466589        5.0720916536
 C        -5.3679857401        2.1840245514        5.9783399244
 O        -5.1843407339        0.4824250251        3.1004335612
 O        -4.5925228089       -0.3386733188        6.4075467884
 C        -2.9424729620       -1.3081848667        3.9439619438
 C        -2.4290273164       -2.7576587288        4.1545922496
 C        -1.7111341103       -3.4706472361        3.0072463403
 C        -0.3224816879       -2.7345683977        2.7541511828
 C         0.7144095749       -3.0910261836        3.8404645596
 O        -2.6020614586       -3.3044278216        5.2421645945
 O        -0.0475456597       -2.1022896362        1.7788426330
 C        -1.7220436410       -4.9820971253        3.3604379371
 C        -2.5302999426       -3.1934104125        1.6740719412
 C         0.9166221873       -1.8190486640        4.7480221478
 C         1.1180237752       -0.4499030625        4.0153126090
 C         2.5556464312       -0.1039355928        3.4609973647
 C         2.5094266608       -0.4206436813        1.9213406453
 C         3.4688617740       -1.6785546197        1.5405321911
 C         2.6559220532        1.4540476668        3.5298755303
 C         3.7154381352       -0.7505496074        4.3014731285
 O         0.1992414946        0.3490220502        4.0112336346
 O         1.8444483829        0.2138933576        1.1487629127
 C         3.0366569349       -2.2969468431        0.1704580806
 C         4.0348443171       -3.3436805975       -0.3106772330
 C         3.4863880037       -4.7987779728       -0.5924766517
 C         3.0153234749       -5.5373064835        0.6837065111
 C         2.9744731051       -7.1024809942        0.7666245636
 O         5.2170355301       -3.0353135018       -0.2795989579
 O         2.8044044022       -4.8509516958        1.6712140384
 C         2.1614594823       -4.5965758743       -1.4007740440
 C         4.3659150201       -5.6057182624       -1.4848540454
 H         6.5654232903        6.6221960015       -3.5553010181
 H         7.5348851976        5.6782889474       -2.5272128775
 H         6.8958927654        4.9339108010       -3.9967809099
 H         3.2400127767        2.7896239416       -1.9528155882
 H         2.0691041026        4.0200085570       -1.9060805584
 H         3.3665469886        7.3177807139       -2.1721040813
 H         2.6643667146        5.8660416346       -1.5645278527
 H         1.9321692375        6.6248646737       -2.9992033868
 H         3.2764546143        6.5101355362       -5.2055690404
 H         4.7965687355        7.1369498087       -4.5568136685
 H         4.5697373338        5.4147624744       -5.3724482983
 H         2.1144706210        1.4858322001       -3.7421191513
 H         1.1019383147        1.6674737689       -2.4138386248
 H        -0.9213981006        0.0665787316       -7.1431524607
 H        -0.0543302465       -0.7112330843       -5.9449826340
 H        -1.3127346737        2.8344622706       -6.9882004103
 H        -0.1452666656        4.0610103236       -6.4412688477
 H        -1.3889162731        3.5658927835       -5.4562811043
 H         1.1060546275        1.3013135791       -7.2196977307
 H         2.1673116722        2.1977348307       -6.1560115753
 H         1.6711540593        0.6111805354       -5.5669112725
 H        -2.2977577477       -1.8640782895       -6.7512966741
 H        -3.1317115401       -0.6995792038       -5.5637269527
 H        -3.6713989773       -2.8430871535       -1.0680808830
 H        -2.0186053212       -2.4735662242       -1.7793864444
 H        -4.4339786835       -3.2397027519       -5.8604038664
 H        -4.0798796732       -4.9253268233       -5.2859310271
 H        -3.0738494570       -3.9490847170       -6.5558885154
 H        -0.9473013085       -4.7295149762       -4.5604186869
 H        -1.2200949163       -4.1288880873       -2.9968959014
 H        -2.2031187286       -5.5381549583       -3.7037514336
 H        -3.2315602747       -0.3870685378       -2.7412140756
 H        -4.5992312948       -0.7790719871       -1.7141073957
 H        -4.9170610746        3.0501095264        0.4724025221
 H        -5.4840628006        1.5248913435        0.9930404557
 H        -1.2756298020        3.0829678862       -0.8355421544
 H        -0.8778072329        1.6357998014       -1.4953276712
 H        -0.7417074273        1.9509961309        0.3288165759
 H        -3.8801293403        3.0236845911       -1.4810262282
 H        -3.5819643186        1.8031443826       -2.7426026801
 H        -4.7587207330        1.5274231217       -1.2879997074
 H        -5.8387661396        3.1938876971        2.8598466938
 H        -4.0489386196        3.6398408372        2.8788806125
 H        -1.6278576357        0.1078882552        5.0788631600
 H        -2.2880549873       -1.2047342007        6.1023866907
 H        -2.3631852504        2.5052677451        4.2046213867
 H        -2.2905070509        2.3573649827        5.8276181391
 H        -3.1866762413        3.7147512849        5.2303552184
 H        -5.6441886675        3.1290700963        5.5518932263
 H        -6.1967107679        1.4858848869        5.8143458036
 H        -5.1305724516        2.2876935124        7.0055054794
 H        -3.9980787315       -1.4723956880        3.9116755483
 H        -2.7053488310       -0.7983853306        2.9851484800
 H         0.3600730430       -3.9467595111        4.5266019947
 H         1.4396270262       -3.6718014712        3.2942594502
 H        -2.6623057441       -5.4164192228        3.0843706819
 H        -1.5417662973       -5.0380263338        4.4192433958
 H        -0.9339204678       -5.4564910690        2.8270936013
 H        -2.6161934228       -2.1742532024        1.4252227500
 H        -2.0452286562       -3.7171834171        0.7996884814
 H        -3.5987609250       -3.4553614179        1.7253556005
 H         1.8281296199       -1.8305361690        5.4591021556
 H         0.0231152977       -1.8260998628        5.3771490636
 H         4.5018363228       -1.2593132643        1.5319184403
 H         3.3592291307       -2.4400046671        2.2339972528
 H         2.0200410597        1.8014599089        2.6478959559
 H         3.6648603396        1.8004811997        3.3124067907
 H         2.2690189060        1.8544809827        4.4599268541
 H         3.6745771203       -0.4662400494        5.3842686558
 H         3.7038851941       -1.8247470963        4.3363952544
 H         4.6528928940       -0.3976570425        3.7409402205
 H         2.0856631381       -2.7770308050        0.2601857894
 H         3.0287468413       -1.4828022577       -0.6013350882
 H         3.9448036420       -7.6616299376        0.8632193423
 H         2.2811302998       -7.4096338494        1.5592152742
 H         2.5681129873       -7.3779087084       -0.2298225277
 H         2.2396092255       -3.7049773358       -1.9468852304
 H         1.2938055344       -4.4274202651       -0.8798282715
 H         2.0980670558       -5.4817171104       -2.0319357511
 H         4.0358059654       -6.5022876684       -1.8446108768
 H         4.4998464488       -5.1819434769       -2.4594474097
 H         5.2829581439       -5.6517092233       -0.9252129619
 Na       -0.4311946753        0.2153077452        1.5163039998
