155

 C         3.6797203791        5.3799845868        0.2114408746
 C         2.5853300365        5.9765841047       -0.7590980920
 C         3.0323622165        5.9620791919       -2.2670890455
 C         3.2817815569        4.3901319497       -2.5218829321
 C         2.1034651448        3.4269318481       -1.9693139618
 C         1.8033098263        6.4855306065       -3.0528897273
 C         4.2850558910        6.7816730044       -2.6109710868
 O         1.4957585772        6.3617812660       -0.3877526878
 O         4.2441056789        4.0181556168       -3.1789562446
 C         1.8571517413        2.2546305705       -2.9441514734
 C         1.0000963530        2.7270945407       -4.1376939548
 C         1.0290636054        1.8080645448       -5.3954095459
 C         0.3160885492        0.4641051359       -5.0522890423
 C         0.5659846473       -0.6566379861       -6.0493122285
 O         0.2591236705        3.6582630223       -4.1205631409
 O        -0.2560380966        0.1826997773       -4.0003549968
 C        -0.0286116090        2.3624769101       -6.4325810985
 C         2.3890985044        1.7593660465       -6.1200008725
 C        -0.6019330400       -1.7316093972       -6.1476968849
 C        -0.8044964225       -2.7225289474       -5.0335470030
 C        -2.3496507885       -3.2257348680       -4.5392350275
 C        -3.0464303663       -1.8907005007       -4.2862513146
 C        -2.9993174041       -1.5336245479       -2.8468880058
 C        -3.0473869628       -3.9228456163       -5.7269248521
 C        -2.2635048982       -4.2509172222       -3.3318450797
 O         0.1693287479       -3.3492231448       -4.6686949106
 O        -3.6196144675       -1.2232169069       -5.1242454612
 C        -3.0655577102       -0.0485017141       -2.5390685636
 C        -2.8200678058        0.2800092731       -1.0992442258
 C        -2.7650703279        1.8219110953       -0.7479188701
 C        -2.8593761057        2.0763539666        0.7663333974
 C        -4.0294427557        1.3723512842        1.5080094254
 O        -2.4674222382       -0.5694670137       -0.2620991826
 O        -1.9647493052        2.6944901170        1.3381102309
 C        -1.3845789906        2.2552886879       -1.2254740947
 C        -3.8751795795        2.5258207227       -1.5355457782
 C        -4.1148102130        1.6370628069        2.9859787969
 C        -3.5414435144        0.4615325259        3.8091665420
 C        -4.2794525380        0.2836782058        5.1585919710
 C        -5.2716604668       -0.9577863973        4.7854973820
 C        -4.8225775723       -2.4149659742        5.0642433510
 C        -3.2301703016       -0.1647920575        6.2569235737
 C        -5.0665974242        1.4670157736        5.6434875773
 O        -2.7380584262       -0.3797564392        3.3943058676
 O        -6.4528654520       -0.7516409026        4.4376118583
 C        -3.7486060987       -3.0822182171        4.0856094858
 C        -2.5855921005       -3.5956664754        5.0545445484
 C        -1.2912973044       -4.2366455990        4.3037419488
 C        -0.7313386414       -3.1737510298        3.2559941942
 C         0.7984657924       -2.8559377545        3.2534429145
 O        -2.6122536185       -3.3671634173        6.2515860661
 O        -1.4758910054       -2.5030247861        2.5483628177
 C        -0.3297033219       -4.6761266183        5.4329924741
 C        -1.8540179777       -5.4413184591        3.5460577844
 C         1.2518148367       -1.7403703471        4.1683108385
 C         0.7423908468       -0.3000012577        3.8265449286
 C         1.6338390376        0.5666307776        2.7754108903
 C         1.7515303971       -0.3278027991        1.4430174078
 C         3.1331337958       -0.9590159278        1.0997120709
 C         0.8633883803        1.8893593224        2.6442348504
 C         3.0210231837        0.7609561641        3.5927410145
 O        -0.3647473502        0.0407360123        4.1310695389
 O         0.8172420606       -0.4170660636        0.7137827843
 C         2.8653010531       -1.6821199991       -0.1660837517
 C         4.1405950844       -2.4043147793       -0.7843504470
 C         3.9509245285       -3.6703071650       -1.6533484629
 C         3.5931365277       -4.7209397996       -0.4931138702
 C         4.7174259915       -5.6741379748        0.0118749604
 O         5.2690411938       -2.1016341905       -0.4717804307
 O         2.4671677151       -4.7407108876       -0.0198980783
 C         2.7639825939       -3.7735315992       -2.7403023287
 C         5.1937213895       -4.0448521289       -2.4821698534
 H         3.1643678100        4.6124710362        0.8811048326
 H         4.5865337697        4.9102484303       -0.2674018114
 H         4.2075655862        6.0811449762        0.8324415936
 H         2.4643368484        2.9926876118       -1.0365845299
 H         1.2509035249        3.9802426383       -1.6257535587
 H         1.6416693888        7.4509570703       -2.5438300378
 H         0.8385295644        5.9736670313       -2.9851425803
 H         2.0948691294        6.6486845850       -4.0510034856
 H         5.0322938084        6.2097925291       -3.1790409354
 H         3.9363615483        7.7094697033       -2.8821918539
 H         4.8476513689        6.8978687608       -1.6751276352
 H         2.7104413600        1.8474284999       -3.4165152286
 H         1.1781737079        1.4603736130       -2.5436076329
 H         0.6589422893       -0.3053177939       -7.1129771524
 H         1.5085071885       -1.1899940229       -5.7813459104
 H         0.0311541658        1.7590057042       -7.3419664856
 H         0.1595909702        3.4348621573       -6.7183093402
 H        -1.0474559001        2.1962242647       -5.9596343297
 H         2.3608313280        1.3144722520       -7.1215229328
 H         2.7761450300        2.7683676603       -6.2971443823
 H         3.1826030059        1.1051559220       -5.6933894277
 H        -0.4966446713       -2.2596737190       -7.1451269601
 H        -1.5224810730       -1.2633213047       -6.4602108351
 H        -3.9255078699       -2.0427898884       -2.4813226283
 H        -2.1484957425       -2.0052725779       -2.3713819499
 H        -2.8963518747       -3.3593935395       -6.6426684867
 H        -4.1758783098       -4.0167039040       -5.5641487592
 H        -2.6365491723       -4.8743777619       -5.9797457725
 H        -2.9122720831       -4.0797643288       -2.4660949639
 H        -2.4059159835       -5.2594002871       -3.6736690422
 H        -1.3172986270       -4.1241325281       -2.8713749586
 H        -2.3267950638        0.4494614986       -3.1399069109
 H        -4.0590916541        0.3530569878       -2.8328754437
 H        -5.0739170887        1.6849140180        0.9757102636
 H        -3.9398214010        0.2626686739        1.4048382796
 H        -1.0964051766        3.2335746646       -0.7320968780
 H        -1.3693900978        2.3855571698       -2.2681450573
 H        -0.6546258471        1.5990236772       -0.8050402475
 H        -3.8247304584        3.6116033324       -1.3430648238
 H        -3.8212875798        2.6968493513       -2.5636239293
 H        -4.8669285192        2.1081517635       -1.4731890199
 H        -5.2300689904        1.7179380382        3.2440643046
 H        -3.6083804366        2.4993579446        3.2100487919
 H        -4.4242390586       -2.4086004078        6.1011639191
 H        -5.8123199013       -3.0115598107        5.1806068367
 H        -2.5929296591       -0.8700129714        5.7512419672
 H        -3.6049408651       -0.5332465173        7.1830519027
 H        -2.6849409478        0.8400388475        6.3428984893
 H        -4.5215121382        2.4087733167        5.7254135971
 H        -5.9017965109        1.7801774774        5.0264902565
 H        -5.6181861321        1.1577334880        6.5204561605
 H        -4.1209908715       -3.8401932211        3.4024518733
 H        -3.2114415247       -2.3123655263        3.4568827416
 H         1.3850971446       -3.7324850543        3.4526159307
 H         1.2050830501       -2.7831823550        2.2216765805
 H        -0.8678222825       -5.2104185097        6.2430504874
 H         0.1528877701       -3.8097770404        5.9005765697
 H         0.5344446144       -5.3375158213        5.0699775026
 H        -2.6363118568       -5.0641402605        2.8391879564
 H        -1.1552953977       -5.8918375673        2.8424700046
 H        -2.2515756746       -6.3352595128        4.1196079328
 H         2.3284533914       -1.7262857627        4.1775400231
 H         0.9367773836       -1.8709445581        5.2198627692
 H         3.9309675406       -0.2625632195        1.0100696114
 H         3.4385886307       -1.7891828871        1.8064161168
 H         0.7962313477        2.1368679473        1.5551851197
 H         1.3613022586        2.7306021047        3.1611748689
 H        -0.1807846813        1.8246598987        3.0373571324
 H         2.9142881612        1.5771250712        4.3663712903
 H         3.4647175903       -0.1792191900        3.7494063645
 H         3.7964235361        1.1537850054        2.9186585910
 H         2.0903713477       -2.4387944770        0.0386099081
 H         2.3492948318       -1.0024576225       -0.8497796200
 H         5.6445639302       -5.2271557134        0.1921139583
 H         4.3186466711       -6.1197350350        0.9307803311
 H         4.8492279915       -6.3176874918       -0.8334130583
 H         2.9163373553       -3.2802702987       -3.7190767808
 H         1.8404370661       -3.3060362683       -2.2431857325
 H         2.5217002229       -4.8208054206       -2.8639571072
 H         5.0964630239       -4.9825132885       -3.0417820784
 H         5.3909900839       -3.3487014148       -3.2753590854
 H         6.0105595570       -4.1188940016       -1.7986123221
 Na       -1.2625642896       -0.2211779908        1.6859764011
