155

 C         9.6967830348       -4.8605272920        5.5016432637
 C         8.7632645754       -3.9729399439        4.6959421488
 C         7.7907799986       -4.5666221876        3.4923864274
 C         6.4064790906       -4.9226221599        4.1192763329
 C         5.7436842426       -3.7783496485        4.8623827119
 C         7.5347642922       -3.4061567990        2.4850391373
 C         8.4733679018       -5.7798589409        2.7922800835
 O         8.6154087793       -2.8212625817        5.0060022943
 O         6.0088089697       -6.0690091745        4.2960322973
 C         4.3358046042       -4.1345543951        5.4372422865
 C         3.1502912194       -3.6123388572        4.4817766249
 C         1.6104838754       -3.7019965196        5.1400630581
 C         1.2082584714       -2.1095098221        5.1505897677
 C         0.8218815748       -1.4331566597        3.8083476908
 O         3.3061523591       -3.2700655293        3.3357960351
 O         1.1133741103       -1.4711953613        6.2458888281
 C         0.7926356658       -4.4880167694        4.1497613507
 C         1.6716482219       -4.2819105301        6.5651682022
 C         0.3523742346       -0.0462873361        4.1393232793
 C        -0.4536906067        0.6717530407        3.0431106583
 C        -1.3030034653        2.0123294931        3.3758363199
 C        -0.3101647651        3.1616451579        2.9897972841
 C         0.4728454704        4.0072080555        4.0923460679
 C        -2.5930820449        2.0857661628        2.4450865572
 C        -1.7609923214        2.1753024478        4.8508279869
 O        -0.6327219090        0.2575458699        1.9256541633
 O         0.0174449573        3.2718929064        1.8497514153
 C         1.8188862890        4.4852561704        3.4642653678
 C         2.7760441654        3.3188815243        3.0566160309
 C         4.0480597105        3.5306756100        2.1536816943
 C         4.0493389772        2.5952440001        0.8650875948
 C         4.2977020623        1.1452327917        0.9689155512
 O         2.6700291346        2.2334856751        3.5957882044
 O         3.9121916902        3.0298229860       -0.2805668296
 C         4.1757174664        5.0284027173        1.6525800352
 C         5.2576343042        3.1465441302        2.9556965045
 C         4.0459453324        0.4685653625       -0.4594447667
 C         2.6533758654        0.8253204997       -1.0862648645
 C         2.5078417915        1.4079948324       -2.6287912367
 C         0.9628077657        1.5191229826       -2.9133764570
 C         0.5568787496        2.6465898327       -3.7883980536
 C         3.2815760882        2.7216816969       -2.9509520194
 C         3.1122261726        0.3215834082       -3.5016986978
 O         1.6560497716        0.8823052805       -0.3640164689
 O         0.1958014440        0.6887921755       -2.5312553789
 C        -0.9741597021        2.7175907142       -4.0052473997
 C        -1.8678389043        2.9405120707       -2.7723775817
 C        -3.3776379146        2.3753994258       -2.6361886822
 C        -3.2216098371        0.8709068107       -2.2941415305
 C        -3.9843966298       -0.3072764315       -2.7462913160
 O        -1.3092271234        3.2399565693       -1.6818288170
 O        -2.2850244831        0.6184899750       -1.5086465673
 C        -4.0976722300        2.9417392771       -1.3642465549
 C        -4.2551122322        2.5685916020       -3.8477902588
 C        -5.3215568771       -0.4942787949       -1.9993864708
 C        -5.8472740817       -1.8332514806       -2.3433959073
 C        -7.4143379144       -2.0683682020       -2.5149725821
 C        -7.9091293946       -0.9466222912       -3.5701676808
 C        -8.1227766593       -1.4791093945       -5.0738182016
 C        -7.6554965211       -3.4838798723       -3.0699807587
 C        -8.1841285658       -1.8242112856       -1.2034969528
 O        -5.1798612969       -2.7566440008       -2.6908998600
 O        -7.9690034683        0.2101776270       -3.2293158168
 C        -8.3874328750       -0.2712272536       -5.9834472938
 C        -7.9040199210       -0.3912494047       -7.4463734326
 C        -6.5265106216        0.2697844632       -7.7433656956
 C        -6.6872589020        1.8333701874       -7.3484964743
 C        -6.9006154930        2.8392382784       -8.5005420532
 O        -8.5392127352       -0.8012791638       -8.3843208241
 O        -6.5812633776        2.2076731978       -6.2283763666
 C        -5.4166842473       -0.2422491527       -6.8456305426
 C        -5.9749772999        0.0383788620       -9.1948640084
 H         9.1632388884       -5.5435819640        6.1124834816
 H        10.3619358240       -5.3140953457        4.7736284819
 H        10.3073142803       -4.1496670596        6.1423100158
 H         6.3846513308       -3.7263711555        5.7485520419
 H         5.6566040780       -2.8687778379        4.4517418673
 H         8.4688669238       -3.3147469119        1.8839492447
 H         7.3392588311       -2.4365053491        3.0166549648
 H         6.7636308467       -3.6719176064        1.8174005655
 H         8.6703298411       -6.5072582881        3.5998458733
 H         7.8937312086       -5.9794264609        1.9168689971
 H         9.4131417390       -5.5909432724        2.3615720759
 H         4.1731895092       -5.3015513966        5.4407298331
 H         4.1493963050       -3.6438628678        6.3961656705
 H         1.4827033095       -1.6834558916        2.9761499679
 H        -0.1416086422       -1.9870260467        3.6463783779
 H         0.8428020293       -5.5446632468        4.3934100858
 H         1.2356744107       -4.5173851032        3.1665518928
 H        -0.2520434281       -4.1536649011        4.0299188519
 H         2.0482630330       -3.5634156215        7.2383308606
 H         0.7110169905       -4.7012678590        6.8485399303
 H         2.3776320447       -5.0997245915        6.6167180456
 H         1.1485676444        0.6852956846        4.3196683807
 H        -0.4182326205        0.0071289669        4.9695226522
 H        -0.2307775683        4.8169825012        4.3599036180
 H         0.7671177986        3.3094596967        4.8285580260
 H        -3.1673096052        2.9441535120        2.6767247036
 H        -3.1904436500        1.1279181125        2.6774340986
 H        -2.4459751164        2.1779632006        1.3881518196
 H        -2.4188354914        1.3695425046        5.1678996375
 H        -0.8884596475        2.0014955682        5.5040557884
 H        -2.2273575185        3.1561034988        5.0136955666
 H         1.7887502956        5.3932676684        2.7953081195
 H         2.4574705299        4.9027033657        4.3167798207
 H         5.4064640172        1.1433006115        1.2032630102
 H         3.6677032593        0.7276719940        1.7551763816
 H         4.1167847671        5.6649490761        2.5193499251
 H         3.2813117985        5.0899627952        0.9964562494
 H         5.1174433455        5.1384649907        1.0999224090
 H         6.1300856797        3.5025769520        2.4644556231
 H         5.2103076489        3.7538506045        3.8783956097
 H         5.4548817015        2.0955497218        3.2360332960
 H         4.1687140964       -0.6377047784       -0.5116868798
 H         4.7936726623        0.9446094028       -1.0798924112
 H         0.9234610928        3.5782970350       -3.3751884532
 H         1.0613411914        2.6057999462       -4.7331168130
 H         4.3147339457        2.6420937531       -2.5676207276
 H         2.8963240597        3.5943958391       -2.4574284179
 H         3.4302763094        2.9019418175       -3.9649289864
 H         4.2509496698        0.2382705401       -3.2595502743
 H         2.6080809057       -0.6340010930       -3.5246271474
 H         3.1713180344        0.6943388545       -4.5475868297
 H        -1.1289438813        3.5252635209       -4.7150991279
 H        -1.4547940772        1.8240854652       -4.4294149957
 H        -4.2592906125       -0.0967607430       -3.7530289969
 H        -3.3746343379       -1.1993076704       -2.6077888372
 H        -3.3402706911        3.2116274510       -0.5809452179
 H        -4.8243261266        2.2772013888       -0.9580738446
 H        -4.6860216555        3.9026528870       -1.5728250406
 H        -5.2104226768        2.1664265895       -3.6409572832
 H        -4.4084460098        3.6037443240       -4.1896144746
 H        -3.8857529665        2.0585601170       -4.7318644537
 H        -6.1592463648        0.2470800365       -2.1330689866
 H        -5.1199780636       -0.4788363974       -0.9175250153
 H        -7.1466537614       -1.8820374512       -5.3705094201
 H        -8.8851980323       -2.2246441267       -5.1077711708
 H        -7.1310369782       -4.2117517294       -2.4663346601
 H        -7.3651804412       -3.7544325978       -4.0617819454
 H        -8.7044912538       -3.8334027071       -3.0270068222
 H        -9.2028232393       -2.2402968213       -1.3047914276
 H        -7.7413471243       -2.3840039090       -0.4232116997
 H        -8.1950051052       -0.7702967380       -0.9582960153
 H        -9.4711661440       -0.0331073174       -6.0137624943
 H        -7.8633004206        0.6293666494       -5.5823312954
 H        -7.0598308562        2.3089505200       -9.4011585659
 H        -7.6573612007        3.5734913769       -8.2706765716
 H        -5.9988926946        3.3942704895       -8.5007283261
 H        -4.8270956375       -1.0043893814       -7.3278116450
 H        -5.7867052143       -0.6294950279       -5.9062913831
 H        -4.6163617221        0.4927838457       -6.6061717435
 H        -5.1558937804        0.6573636029       -9.4202211828
 H        -5.7970221987       -0.9893765651       -9.3582022553
 H        -6.8065940923        0.1147193868       -9.9400904745
 Na       -0.5611383113        1.5693064438       -0.0513289832
