155

 C         3.0360658344        5.5482358562        0.7969438364
 C         2.1716584836        5.9457651152       -0.4730949506
 C         2.7814214388        5.9934415794       -1.9496946305
 C         3.0223750671        4.5430214866       -2.3591925780
 C         1.8619392788        3.4672437482       -1.9831230009
 C         1.7415586242        6.5533681292       -2.9933604508
 C         4.2121590778        6.8286540117       -1.8448302390
 O         1.0153019537        6.2730732613       -0.3883038541
 O         3.9774459333        4.1691991638       -2.9468436170
 C         1.9225825342        2.3517732697       -3.0190524217
 C         1.0097405660        2.5827784857       -4.2556813924
 C         1.1503885853        1.5717983871       -5.4342896747
 C         0.5802509415        0.1244897331       -5.0254880681
 C         0.8378184684       -0.9101759246       -6.1511066167
 O         0.1343598927        3.4279658298       -4.2274872514
 O         0.0333826845       -0.0734830032       -3.9723753563
 C         0.1823116237        2.0271451088       -6.5468092920
 C         2.6154435339        1.4274564660       -6.0659156795
 C        -0.3193788551       -1.8478188739       -6.4122229105
 C        -0.4962997373       -2.8652314455       -5.2946665076
 C        -2.0759352349       -3.1562123042       -4.9762691764
 C        -2.6105750577       -1.9041838093       -4.3589230007
 C        -2.8170437268       -1.4973360465       -2.9048309670
 C        -2.7883009241       -3.5961464045       -6.2901038053
 C        -2.0700393979       -4.3463416901       -4.0046768457
 O         0.3831598499       -3.4265077853       -4.7159546210
 O        -2.8874495104       -1.0507803708       -5.2140506957
 C        -3.2067323367        0.0036323538       -2.6482100369
 C        -2.8288599028        0.5033166071       -1.1976946759
 C        -2.8084757942        1.9441796364       -0.6472576722
 C        -2.9599329489        2.1520724834        0.9284009723
 C        -4.2572876137        1.5300616601        1.4633885693
 O        -2.4227820515       -0.3923956058       -0.4288751957
 O        -2.1399215962        2.8026160797        1.5402901535
 C        -1.3668021633        2.4733749625       -0.8948092496
 C        -3.6657628074        2.9459213489       -1.4270576217
 C        -4.5114684036        1.5396867838        2.9810585069
 C        -3.8846540790        0.4787588521        3.8303748881
 C        -4.5275422652       -0.0308008700        5.2238631101
 C        -5.4393736329       -1.1943122998        4.8308447984
 C        -5.0681370749       -2.6588851357        5.3725914605
 C        -3.4122201169       -0.5321225500        6.1733159581
 C        -5.3686304905        1.0186313729        5.9700751195
 O        -2.7885313704       -0.0123034646        3.5969261910
 O        -6.4499876404       -1.1105435860        4.1954229538
 C        -4.0511679874       -3.3883199100        4.4842917169
 C        -2.8861280174       -3.8179194319        5.3038983361
 C        -1.4805292626       -4.2114712876        4.5165579480
 C        -0.9989562654       -3.0841271608        3.5373194860
 C         0.5163095947       -2.6979660636        3.1944571184
 O        -2.8653777705       -4.0591621899        6.4896216586
 O        -1.8518258878       -2.5262653709        2.7993093895
 C        -0.3669617371       -4.3698508796        5.5547676204
 C        -1.7103897952       -5.4301180269        3.6225503321
 C         1.3499170792       -1.7870655226        4.0578466442
 C         1.0386427441       -0.2708592065        3.8135920100
 C         1.9099557830        0.5842499520        2.7246655455
 C         1.9164220592       -0.1340082438        1.3314880218
 C         3.2108609778       -0.3672930859        0.5741058476
 C         1.1523823325        1.9223426995        2.4201329415
 C         3.3390619788        0.7853707959        3.2217639775
 O         0.1449865883        0.3519057175        4.3397440726
 O         0.8922943019       -0.6390772944        0.9703503709
 C         3.0225309539       -1.5177982282       -0.4450471856
 C         4.2634850827       -2.2221190882       -0.9317690278
 C         4.0199970727       -3.4697529956       -1.7664686197
 C         3.7295586192       -4.6950468187       -0.7317848132
 C         4.8889732143       -5.4634557607       -0.0863971589
 O         5.3169794480       -1.7475622010       -0.6175448282
 O         2.6154037398       -4.9379206311       -0.3642322768
 C         2.8494576593       -3.3485562332       -2.7612494750
 C         5.3669711575       -3.7816411261       -2.5023576892
 H         3.4456341710        4.5646943432        0.7786399175
 H         3.8401632864        6.2112208428        1.0224884410
 H         2.3814237015        5.6896237911        1.6912546876
 H         2.0686771044        3.0357208758       -1.0199163597
 H         0.9472016927        3.9512789749       -1.8470353669
 H         1.3965798552        7.6065646092       -2.8412842963
 H         0.8650961205        5.8239256684       -3.0528002165
 H         2.2826664999        6.5856811125       -3.9276895253
 H         4.5917109680        6.8072464492       -2.8732282196
 H         4.0977625221        7.8528364532       -1.4473990389
 H         4.9146159820        6.2646089913       -1.2448892726
 H         2.8774595360        2.1665583728       -3.4128575705
 H         1.4715406025        1.4473657782       -2.6566674356
 H         1.0516492195       -0.3521766772       -7.1001918065
 H         1.7360683741       -1.4681681490       -5.9965888748
 H         0.0193249790        1.3022236633       -7.3456918268
 H         0.4825099519        2.9615052244       -7.0413788985
 H        -0.7656924863        2.2482935204       -6.0068899002
 H         2.5809872167        1.2194717037       -7.1090200831
 H         3.1742740128        2.3423105750       -5.9401313959
 H         3.3615064994        0.6706456033       -5.7772373370
 H        -0.3683042164       -2.4002447306       -7.4265818701
 H        -1.2452554517       -1.2523223691       -6.5068884401
 H        -3.6541485702       -2.1127554890       -2.4626421247
 H        -1.8612049014       -1.6729250952       -2.3576421991
 H        -2.9716098064       -2.7573238163       -6.9301308374
 H        -3.7627469396       -4.2014948923       -6.1342360431
 H        -2.2329955029       -4.2779349649       -6.8356740604
 H        -3.0253709819       -4.8987736759       -4.1638684296
 H        -1.2805212488       -5.0571299092       -4.2448666645
 H        -1.9949770807       -4.0810184412       -2.9830830097
 H        -2.6606122364        0.6255643959       -3.4192808337
 H        -4.3003538263        0.0665348049       -2.8621446191
 H        -5.1840119534        2.0735878027        1.0083441509
 H        -4.1441657097        0.4800180538        1.1765738070
 H        -1.4296463833        3.5010402981       -0.6186733836
 H        -1.2357181969        2.4256737095       -1.9322888050
 H        -0.5051661725        2.0269941957       -0.3742345229
 H        -3.5965791375        4.0143816868       -1.1262384078
 H        -3.5538081791        2.9043108135       -2.4877503709
 H        -4.7173508446        2.6921197202       -1.5191938182
 H        -5.6485076367        1.4382450771        3.0570178544
 H        -4.2005950939        2.4294504859        3.5009289116
 H        -4.6791210355       -2.5570467779        6.4294564036
 H        -6.1095791403       -3.2008205956        5.4487267337
 H        -2.7238440934       -1.1545085350        5.5866746361
 H        -3.7904979311       -0.9407776163        7.0744405382
 H        -2.9032753518        0.4967792257        6.4218757742
 H        -5.0317185647        2.0837052516        6.0625854892
 H        -6.4308473253        1.1159070850        5.6016964623
 H        -5.4582673141        0.7187435866        7.0244807094
 H        -4.5209136500       -4.2958707726        4.1087857125
 H        -3.8057132914       -2.9059055394        3.5170110874
 H         1.1397141662       -3.6079083611        2.8431631105
 H         0.4130880552       -2.1861341680        2.1668104611
 H        -0.7347366489       -4.9176800428        6.3804960991
 H        -0.1170906366       -3.4459354973        5.9974022582
 H         0.6033668868       -4.7346842372        5.1422550858
 H        -2.0900618190       -5.1995958241        2.6741578896
 H        -0.8459451591       -6.0453738475        3.3997526019
 H        -2.3549267997       -6.1396219598        4.1852983645
 H         2.3895731115       -1.8678629298        3.7600898186
 H         1.3770633973       -1.9836449867        5.1791073512
 H         3.4956177698        0.4491748947        0.0106224951
 H         4.0018965837       -0.6938190684        1.2924344303
 H         1.8002385988        2.7631704771        2.5951506557
 H         0.3884603145        1.9733517111        3.1416670050
 H         0.6288974463        2.0536776297        1.5254727023
 H         3.2542220387        1.2003281180        4.3084878640
 H         3.6859121010       -0.1916764197        3.4010481346
 H         4.0203513888        1.4464718990        2.6342412077
 H         2.3563237238       -2.2279351218        0.1069655639
 H         2.4237990075       -1.1912567603       -1.3082940560
 H         5.2990127153       -4.8381005416        0.6596796184
 H         4.4890200452       -6.3752095861        0.3869953871
 H         5.6576384816       -5.6157042678       -0.8352337602
 H         2.6868843553       -2.3229396869       -3.1547515670
 H         1.9169956986       -3.8833454016       -2.4912330902
 H         3.1273268605       -3.8064078123       -3.7434255570
 H         5.2551481241       -4.7652917031       -2.8246055480
 H         5.4934579327       -3.0322920127       -3.2864112313
 H         6.3002006649       -3.6040044121       -1.9585959551
 Na       -1.6312753499       -0.5699937176        1.6651209444
