155

 C         2.7353567897        5.7500576338        0.8805015234
 C         1.7759851409        5.9710712973       -0.3434458239
 C         2.6430897869        5.9843346699       -1.6616168241
 C         2.8818906658        4.4869419351       -2.2303239525
 C         1.7843575584        3.4287155575       -2.1497778287
 C         1.8177305061        6.8741909877       -2.7703951298
 C         4.0464259777        6.6428887871       -1.6570881432
 O         0.5885559763        6.2175866240       -0.3144498527
 O         3.9620481872        4.2495965417       -2.7623418418
 C         2.0098011178        2.2177344675       -2.9848402031
 C         1.1018640743        2.3936377621       -4.2258358682
 C         1.2227413340        1.4971526202       -5.5871050551
 C         0.8388180721        0.0189241522       -5.2211129665
 C         1.1758617606       -1.1095389262       -6.2639592372
 O         0.1903458901        3.1489606015       -4.1674219922
 O         0.2831754543       -0.1852149973       -4.1425375582
 C         0.2520909519        2.1418205127       -6.6543908628
 C         2.7009791729        1.5948021591       -6.0158904334
 C        -0.0440868784       -1.9924550613       -6.5509289817
 C        -0.4397952250       -2.8595451888       -5.3533689011
 C        -2.0311280262       -3.0292095087       -4.9569126411
 C        -2.5649855168       -1.6890381246       -4.5131145179
 C        -2.5338973427       -1.3565911807       -2.9551307693
 C        -2.7279266588       -3.4154483576       -6.3574388786
 C        -2.2517492142       -4.3382429285       -4.1287276726
 O         0.3721721082       -3.4236611790       -4.6506041429
 O        -2.7117291857       -0.8033733828       -5.2906352402
 C        -3.0257143839        0.0954718705       -2.5796029484
 C        -2.6998951098        0.3959576852       -1.1347255645
 C        -2.7853487083        1.8710371207       -0.5953963463
 C        -3.1352822798        1.8542058179        1.0250992310
 C        -4.5491417601        1.3926538920        1.5049281731
 O        -2.3242885421       -0.4144707184       -0.3105098640
 O        -2.4419010166        2.4537578140        1.8387900501
 C        -1.3124170664        2.4227618630       -0.7812453824
 C        -3.8067738406        2.7047701094       -1.3459879823
 C        -4.8345293831        1.4480362705        3.0249405188
 C        -3.9753783878        0.4290201606        3.8489820049
 C        -4.5443915708       -0.1189357616        5.2207695877
 C        -5.4136689799       -1.3940544946        4.8105618787
 C        -5.1976107208       -2.8267740801        5.3548403345
 C        -3.3107702341       -0.3605254547        6.1793454819
 C        -5.4933018867        0.9216267609        5.7946432335
 O        -2.9311628447        0.0205171314        3.3893082501
 O        -6.2895594985       -1.2281332752        3.9725663365
 C        -4.0917115403       -3.4843995220        4.5050675989
 C        -2.8098975902       -3.7650625928        5.3520260415
 C        -1.5204106708       -4.0552107922        4.6969070048
 C        -1.0584183942       -2.9616090657        3.5518165766
 C         0.4073976203       -2.8362647988        3.2079524121
 O        -2.9840732910       -4.1604323771        6.5189605831
 O        -1.8733794071       -2.3309781472        2.9522452302
 C        -0.4059758624       -4.3736395050        5.6658282197
 C        -1.6632410758       -5.4065402099        3.8727780790
 C         1.2332876146       -1.8026607200        4.0502572708
 C         0.8738176042       -0.2505582582        3.7813882131
 C         1.8353697114        0.5645563474        2.7086703839
 C         1.7660142219       -0.1527752307        1.2232841868
 C         3.0016754604       -0.2854519545        0.3727570587
 C         1.3760021559        1.9758205274        2.5932012049
 C         3.2940205628        0.5573363244        3.2224614131
 O         0.2591326279        0.4064726401        4.5433767974
 O         0.6404690241       -0.5517468396        0.8462783652
 C         2.9622676085       -1.5497905352       -0.6361600505
 C         4.3054051327       -2.0995480058       -1.0725508575
 C         4.2094457888       -3.3982120561       -1.9981844118
 C         3.8645280489       -4.5649777957       -0.8167057977
 C         5.0050322656       -5.3209196202       -0.1821079571
 O         5.3836687593       -1.7060417650       -0.6274659405
 O         2.6961051334       -4.7794748255       -0.5568429746
 C         3.0634079047       -3.3745402386       -2.8917438194
 C         5.5384168154       -3.6844161096       -2.6409870461
 H         3.8056801778        5.4387271443        0.5349476421
 H         2.9250771483        6.7745064493        1.3319756246
 H         2.4209222858        5.1513772786        1.7073122891
 H         1.7439355979        3.2302082182       -1.0649363329
 H         0.8445793243        4.0270391380       -2.3628635880
 H         2.0544249793        7.9251710295       -2.6689280213
 H         0.8076510801        6.7053466936       -2.5894880176
 H         2.0780006497        6.7002892923       -3.8215660272
 H         4.3334678736        7.0970284171       -2.6403525481
 H         4.1176740904        7.3855419150       -0.8999808269
 H         4.6737843026        5.8194916762       -1.2854375861
 H         3.1227612095        2.1013878565       -3.2952116428
 H         1.5713941114        1.2496007243       -2.6142236729
 H         1.5957215238       -0.7254539040       -7.1862629653
 H         2.0227307773       -1.7870425650       -5.8826120709
 H         0.5390806688        1.8750785653       -7.6845951489
 H         0.4426335337        3.2387099576       -6.5674065470
 H        -0.8223733957        2.0211058419       -6.4715509883
 H         2.9779375736        1.1499521427       -7.0000055633
 H         3.0939488534        2.6228342151       -6.0162249743
 H         3.4531419181        1.1680996164       -5.3644407787
 H        -0.0039514540       -2.4789618284       -7.4983456094
 H        -0.9470623592       -1.3279103112       -6.6192649754
 H        -3.1306253783       -2.0411761994       -2.3857210905
 H        -1.5060787586       -1.3880814165       -2.6377172464
 H        -2.6167561849       -2.7470751563       -7.2222841322
 H        -3.7231019685       -3.6477710025       -6.2767051148
 H        -2.3640268524       -4.4542435912       -6.6509664451
 H        -2.5561420499       -5.1481075987       -4.7447859698
 H        -1.2726785509       -4.5738411190       -3.6973165320
 H        -2.8948180569       -4.2229155438       -3.2314572199
 H        -2.5698845299        0.7984441414       -3.2008365155
 H        -4.0827254366        0.1893630949       -2.7350520872
 H        -5.0784838914        2.2048751848        1.0931839026
 H        -4.8345654489        0.3949366455        1.0946021925
 H        -1.1427930312        3.4481224727       -0.2756335183
 H        -1.0920288448        2.4291722860       -1.8694458403
 H        -0.6429773504        1.6942128435       -0.3916465429
 H        -3.7897812170        3.7220166253       -0.9672405427
 H        -3.5960193828        2.7380109093       -2.4197053746
 H        -4.8920453268        2.5453873529       -1.4338641078
 H        -5.9066931901        1.3066937442        3.1279561960
 H        -4.5846037167        2.4295725535        3.4416958369
 H        -4.8612972526       -2.9791811802        6.3648864167
 H        -6.1685926278       -3.1393998752        5.2419893771
 H        -2.6906106828       -1.0271825364        5.6118595532
 H        -3.7026636204       -0.7780531829        7.1193957844
 H        -2.7978854791        0.5304339992        6.3705199286
 H        -4.8991897157        1.8154462887        5.9374933801
 H        -6.3249605410        1.1802337350        5.2083517008
 H        -5.8013238551        0.8278568114        6.8337268995
 H        -4.5310537314       -4.3525472734        3.9713856957
 H        -3.8487871465       -2.8355062498        3.6600709585
 H         0.8956580233       -3.7248152708        3.4448973696
 H         0.3785238699       -2.7198471364        2.1657135735
 H        -0.8348992550       -4.9243333220        6.5503471176
 H         0.0940784164       -3.4725965964        6.1404347678
 H         0.4034400194       -4.8748881162        5.1769000618
 H        -2.3211833137       -5.3400818474        2.9185642915
 H        -0.6726966646       -5.6165824726        3.4303290832
 H        -1.9226852520       -6.2682577142        4.4798063989
 H         2.3101374483       -1.9219082097        3.7848533329
 H         1.1659037756       -2.0678177857        5.0815504016
 H         2.8840703735        0.5411594659       -0.4162792556
 H         3.8886270773       -0.2109578437        0.9479231738
 H         2.1326665341        2.7093089582        2.8902607109
 H         0.5283394140        2.1416203156        3.3361957496
 H         0.9421167635        2.2830737428        1.5762296552
 H         3.2289235768        1.0734142366        4.1503943579
 H         3.7112239047       -0.4048841322        3.6514814416
 H         3.8692679823        1.1302628657        2.5285649178
 H         2.3603460272       -2.3180717022       -0.2013782071
 H         2.4739069328       -1.2600105390       -1.5740892103
 H         5.6719729868       -4.5631049393        0.2754975886
 H         4.5445988451       -5.9538887742        0.5622764239
 H         5.5268812730       -5.9289376101       -0.9041052067
 H         2.9895127143       -2.4754770156       -3.4706720165
 H         2.1371725066       -3.6039516220       -2.3358579785
 H         3.0992600179       -4.0885823790       -3.6673598990
 H         5.3928992303       -4.7017650911       -3.1049502456
 H         5.6935556160       -2.8257628657       -3.2171606233
 H         6.4307440284       -3.6551236042       -2.1080570911
 Na       -1.4040789591       -0.3072057660        1.7047339817
