155

 C        -0.8821775382        7.0113280258        0.0665907397
 C        -0.1660139445        5.9743726281        0.8443558870
 C         1.4351336574        5.9900763823        1.0042749770
 C         2.0521921510        5.9561005149       -0.4670312213
 C         1.5313325671        4.7857361821       -1.2707233456
 C         1.7015398057        7.3747072036        1.6391378429
 C         1.8446382392        4.9533155985        2.1061001293
 O        -0.8680785980        5.1214985582        1.3371565352
 O         2.6555721670        6.9429635763       -0.9033044444
 C         2.4359883939        4.1107535696       -2.2940114695
 C         1.6075131301        3.2956535882       -3.2798585196
 C         2.4803177561        2.3443049731       -4.2666759955
 C         1.5232532447        1.2592484530       -4.8647188345
 C         2.0831630180        0.3778585822       -5.9389795882
 O         0.4444255583        3.4344908937       -3.4441293275
 O         0.3929866048        1.0398089353       -4.4503614230
 C         2.9163869980        3.2824150807       -5.4651250652
 C         3.7513334171        1.7821052354       -3.6586620885
 C         1.0038524123       -0.5043820690       -6.6599152908
 C         0.7434869510       -1.7682616298       -5.8807092908
 C        -0.4530962655       -2.6531160116       -6.1528970322
 C        -1.6067479596       -1.9201080653       -5.3109257222
 C        -1.4460319474       -1.7021343250       -3.7461957966
 C        -0.9394833406       -2.4949078291       -7.6659598109
 C        -0.2316036213       -4.1141457412       -5.6387620735
 O         1.4474462792       -1.9602704091       -4.8303999904
 O        -2.5859286712       -1.3700226593       -5.7905907895
 C        -2.6895162916       -1.0121067353       -3.2486375102
 C        -2.7672448078       -0.7444767751       -1.7244889177
 C        -3.5746246622        0.5595376091       -1.2312548825
 C        -4.5474121438        0.2330088783       -0.1177536030
 C        -5.1546315870       -1.2079996765       -0.1038464568
 O        -2.2741078216       -1.6145559565       -0.9897234988
 O        -4.9510399347        1.0786554662        0.6612504978
 C        -2.5016854866        1.6345764650       -0.5763258120
 C        -4.2480594473        1.2188342585       -2.3904905940
 C        -5.7112529179       -1.6756383705        1.2396678763
 C        -5.0205708011       -1.1946729826        2.4883340343
 C        -5.7661764645       -0.8188926005        3.8796705785
 C        -5.6763659266       -2.3453079150        4.4662773737
 C        -4.3678029938       -2.5492847010        5.3699144426
 C        -5.1135301428        0.3131734989        4.7066023352
 C        -7.2600265018       -0.5286151798        3.6213816326
 O        -3.7676238091       -1.1198664404        2.5726759797
 O        -6.4299370599       -3.1445131254        4.0633885914
 C        -3.6392942378       -3.8965600902        4.9958571934
 C        -2.1289509202       -4.0832911021        5.4911281363
 C        -1.1914156352       -4.9493562739        4.5068629400
 C        -0.4250523692       -3.9093661995        3.6067950493
 C         0.7271543649       -3.1222926191        4.2427918160
 O        -1.6756223338       -3.4447787030        6.3476201120
 O        -0.7992166860       -3.8674984406        2.4525630485
 C        -0.2072325264       -5.7918788682        5.3608235321
 C        -2.0506675117       -5.8782110690        3.5973876363
 C         0.4442610084       -1.6168135837        4.8404690785
 C         0.0883456125       -0.6095800703        3.6215531076
 C         1.1728993117        0.1768535531        2.8330983030
 C         1.5116088365       -0.5707580960        1.3555457777
 C         2.8332652585       -0.2618258494        0.7075084769
 C         0.5059258912        1.4889751561        2.4461498260
 C         2.5345606158        0.2963849371        3.5538956466
 O        -1.0384435207       -0.4561357265        3.2261694866
 O         0.6180959130       -1.2231088287        0.8988235812
 C         3.0577184384       -1.0983634577       -0.5899613527
 C         4.4136178721       -0.7256025896       -1.2650507028
 C         5.2126111317       -1.7572796651       -1.9878422107
 C         6.0119837061       -2.5741096706       -0.9061962652
 C         7.4510764634       -3.0040571531       -1.2871265369
 O         4.7863797835        0.4470107429       -1.1118049569
 O         5.5426543928       -2.6498693024        0.2047935820
 C         4.2710122618       -2.5515086216       -2.8363497661
 C         6.1981434256       -1.0368802476       -2.9550085799
 H        -1.5204163281        6.7120707058       -0.6970301796
 H        -1.4914525096        7.3856748789        0.8818349858
 H        -0.2171487816        7.8342492796       -0.2836193641
 H         1.1986929410        4.0337610275       -0.6357962297
 H         0.6856598909        5.1507574698       -1.8504538740
 H         1.2354912677        7.5348473245        2.6145537656
 H         1.5155369338        8.2307766863        0.9677898985
 H         2.7944762480        7.3703917363        1.7119806425
 H         2.7734391461        5.2231936610        2.6346446905
 H         1.1447703902        4.7761597694        2.8378446574
 H         1.8730433204        3.9803646527        1.6161311842
 H         3.1516900844        4.6743160589       -2.8929034577
 H         3.0438203511        3.4274789922       -1.7530512730
 H         2.5692246072        0.9077404353       -6.7458157826
 H         3.0100656646       -0.1913067140       -5.5484350121
 H         3.5937014986        2.7736432194       -6.2061426313
 H         3.4287891221        4.1970948834       -5.0807427756
 H         2.0677148439        3.5399212758       -6.0945368757
 H         3.9794247964        0.8755180724       -4.2498158483
 H         4.4735378894        2.5785822385       -3.7626116824
 H         3.4680625448        1.3885783806       -2.6719652574
 H         1.3157537405       -0.8061176349       -7.6392478098
 H         0.0715338943        0.1092068405       -6.4644456341
 H        -1.2797748553       -2.6424872197       -3.1518314892
 H        -0.5258234452       -1.1066043367       -3.5744157214
 H        -1.1528306078       -1.4053729807       -7.8495834500
 H        -1.8517523085       -2.9624747985       -7.7061068611
 H        -0.2046172733       -2.9258474884       -8.3545195092
 H        -0.5311072350       -4.2720742725       -4.6118683436
 H        -0.7519267722       -4.7900265214       -6.2893107502
 H         0.7828430905       -4.3395128142       -5.6237456003
 H        -2.9268654037       -0.1148875574       -3.7961378577
 H        -3.5815143541       -1.6936651861       -3.4298210018
 H        -5.9317579849       -1.1733448614       -0.9087258855
 H        -4.5363758579       -1.9633176898       -0.4603377327
 H        -2.7920361786        2.6983294857       -0.6245994758
 H        -1.7273657617        1.4103804971       -1.2785451201
 H        -2.1899383927        1.4042796231        0.3949489960
 H        -4.9392278022        1.9001849351       -1.8745395321
 H        -3.5264286997        1.9213957463       -2.8479683957
 H        -4.7474068416        0.5281746323       -3.0428029233
 H        -5.6981773361       -2.8372597443        1.3910096826
 H        -6.7239568344       -1.4628085927        1.2349382707
 H        -3.7888353944       -1.6627027864        5.2943200030
 H        -4.7440574789       -2.6420971370        6.3584068076
 H        -4.0431936975        0.3097209129        4.6024874937
 H        -5.3413229265        0.1084056153        5.7612448489
 H        -5.4890631341        1.3527823699        4.3780237762
 H        -7.2541118345        0.3460309548        2.9938498164
 H        -7.6386531274       -1.4717635728        3.1721349463
 H        -7.7796087156       -0.3834571968        4.5461532033
 H        -4.1340824200       -4.7798896270        5.4579708690
 H        -3.6297207080       -3.9707950596        3.8439766482
 H         1.0485985305       -3.6826920835        5.1450397748
 H         1.5520333450       -3.0457498066        3.6096921428
 H        -0.8213326135       -6.4948074547        5.9918702958
 H         0.3580785312       -5.2013261096        6.1178032396
 H         0.3437065627       -6.5242545181        4.7944060776
 H        -2.6156459201       -5.3670146632        2.8062165483
 H        -1.3096455264       -6.6075782790        3.1833245256
 H        -2.7726348644       -6.3999606515        4.1308599855
 H         1.2920781640       -1.4039406852        5.4687815430
 H        -0.4961335171       -1.7129792640        5.3582228102
 H         2.6809030855        0.8415029660        0.5854084281
 H         3.6974617413       -0.3891371140        1.3240583399
 H         1.1973543714        2.0545113140        1.7972327047
 H         0.2494488285        1.9952864380        3.4352066026
 H        -0.4450130560        1.3163053383        1.7807790575
 H         2.4318532155        0.3814167033        4.5735272016
 H         2.9898034718       -0.7527502677        3.3679723521
 H         3.2049794104        1.0503330190        3.1445322231
 H         3.1007762684       -2.1206378891       -0.2871197219
 H         2.2874345897       -0.9556118490       -1.3785346409
 H         7.8554241847       -3.4787083065       -0.3813275460
 H         7.4199623059       -3.5711246514       -2.1978153949
 H         8.1322415062       -2.1473928563       -1.3920378712
 H         3.6777707223       -1.8864673546       -3.4209019463
 H         3.6021551034       -3.1372602561       -2.2385729742
 H         4.8586485746       -3.1828437046       -3.5188891648
 H         6.8284784569       -1.8061255929       -3.4632011752
 H         5.7971467950       -0.2072299312       -3.5903390786
 H         6.9895671743       -0.6020708173       -2.4026791958
 Na       -1.7927162132       -1.7558561992        1.2902465009
