155

 C        -0.9022979118        7.3218807283        0.2747424313
 C        -0.2421552769        6.1998515749        1.0571526847
 C         1.2778110363        6.3167376914        1.1333348586
 C         1.9144348249        6.0761732829       -0.2952115519
 C         1.4770681465        4.8157277364       -1.0552931419
 C         1.7614811256        7.6927151039        1.8497047736
 C         1.7859130770        5.1143776926        1.8642839621
 O        -0.8890799453        5.3071077175        1.6291362539
 O         2.7344094215        6.7884241617       -0.7592540514
 C         2.4204788943        4.3827635148       -2.2457540829
 C         1.6643837120        3.4660726525       -3.2805206834
 C         2.4359181422        2.6158287500       -4.3139937204
 C         1.5764102939        1.3679995004       -5.0214388224
 C         2.2326252222        0.5539789460       -6.1494183368
 O         0.4520968688        3.6028891018       -3.3537404740
 O         0.5112037626        0.9969540590       -4.5928846681
 C         2.8671986233        3.5804425359       -5.4010391412
 C         3.6283805749        1.8551156940       -3.5338626738
 C         1.2380005565       -0.4310935722       -6.7332522790
 C         0.9090749842       -1.6626409653       -5.8430795596
 C        -0.4155230149       -2.5403422689       -6.1302464286
 C        -1.7669363617       -2.0786021157       -5.3600753127
 C        -1.6597076767       -1.8004524024       -3.8908820587
 C        -0.7166986129       -2.7153856569       -7.6448898233
 C        -0.0958651137       -4.0212327167       -5.5913553230
 O         1.6849915992       -2.0309003339       -5.0643536892
 O        -2.7703743034       -1.9052046100       -5.9966819217
 C        -2.9599454377       -1.2725611995       -3.2972290005
 C        -2.8310020195       -0.8157278615       -1.8302984691
 C        -3.5840665707        0.3984743532       -1.3097966241
 C        -4.6385633609        0.0183507721       -0.2191333502
 C        -5.1804795369       -1.3606030717       -0.0603095926
 O        -2.1623644617       -1.5263076402       -1.0917635530
 O        -4.8368470248        0.9175097384        0.5959522764
 C        -2.3450981790        1.2110180729       -0.8367323715
 C        -4.4838986663        1.2834208314       -2.4507380577
 C        -5.9091273315       -1.4635787199        1.2397270764
 C        -5.0423582289       -1.0355868207        2.5249360001
 C        -5.8033856501       -0.9977055625        3.8099459184
 C        -5.4667403207       -2.4522781778        4.3518205602
 C        -4.1062329867       -2.6387197428        5.1054324229
 C        -5.1832955388        0.1394362028        4.7648189410
 C        -7.3462010957       -0.7468061139        3.6583256283
 O        -3.8446783806       -1.1715612014        2.4733013416
 O        -6.2204165846       -3.4211538424        4.1518431654
 C        -3.8968445566       -4.1620588059        5.3798648745
 C        -2.3517981275       -4.2435906523        5.4497688533
 C        -1.3337401257       -4.9967850227        4.4523697696
 C        -0.5584750004       -3.8815928078        3.6286529030
 C         0.7207076837       -3.2977219980        4.3427926500
 O        -1.8294616375       -3.3660573910        6.1623802514
 O        -0.8923353725       -3.5622175978        2.4870385282
 C        -0.4758887937       -5.8036644454        5.4823106790
 C        -2.0591164790       -6.0117521425        3.5158778715
 C         0.4200833049       -1.7910872210        4.7322815345
 C         0.0545210335       -0.7826717202        3.5820524491
 C         1.1293462473       -0.0181712286        2.7789838086
 C         1.4932550874       -0.6507764151        1.3932579109
 C         2.9592546435       -0.2780390966        0.8622882722
 C         0.5255277896        1.4484181801        2.3885728087
 C         2.2962881603        0.3345671189        3.7789499750
 O        -1.1224559844       -0.7251150943        3.2304327441
 O         0.6497366487       -1.1576458843        0.6616069469
 C         3.3259054687       -0.8237219406       -0.4436824626
 C         4.5848729556       -0.4142890483       -1.1631936524
 C         5.3393390546       -1.5021834955       -1.9515941274
 C         6.0911639397       -2.5156831620       -0.9364775327
 C         7.5095621054       -3.0118382257       -1.1206500322
 O         4.9966291278        0.7010389097       -1.1734172090
 O         5.4455848559       -2.9437110988        0.0025229771
 C         4.3955285167       -2.5447317605       -2.7368697232
 C         6.3212579110       -0.9385532157       -3.0213138320
 H        -1.9046453194        6.8073004021       -0.0770695706
 H        -1.2614756652        8.1478499152        0.9503183755
 H        -0.3244324523        7.6344927061       -0.5734054142
 H         1.5320112005        3.9265959793       -0.3169231141
 H         0.4381819903        4.9057688681       -1.4688383652
 H         1.1906599605        7.9539898492        2.7270822325
 H         1.6171317920        8.4382045980        1.1077172660
 H         2.7961811027        7.6858465782        2.0631386796
 H         2.8390403650        5.2661539829        2.0600626902
 H         1.2154809698        4.8417350478        2.8666395539
 H         1.6518811812        4.2213059316        1.2964088754
 H         2.8581307444        5.2146816989       -2.8327946525
 H         3.3338182359        3.8687725915       -1.8346336869
 H         2.6577748532        1.1302396394       -6.9965436209
 H         3.1122060318        0.0248063127       -5.9042960192
 H         3.6892882326        3.1891856362       -5.9103952310
 H         3.1420332757        4.5130744601       -4.9776460494
 H         2.1555424209        3.6821922910       -6.2109921093
 H         3.9288026557        1.1032852574       -4.2148098514
 H         4.3226538155        2.6441887081       -3.3173986641
 H         3.2389331604        1.3521456309       -2.6882089814
 H         1.8127435104       -0.9776102151       -7.5404059373
 H         0.3325643982        0.0712793261       -7.0169071464
 H        -1.3285893613       -2.6779338491       -3.3802238529
 H        -0.8434682611       -1.1319197473       -3.7230689722
 H        -0.7982562120       -1.7527446943       -8.1604298144
 H        -1.6652146000       -3.3869844122       -7.7089645702
 H         0.1779672147       -3.1739927030       -8.0499922561
 H        -0.2638134261       -4.1263089682       -4.5061334799
 H        -0.7402267861       -4.7509569181       -6.1045684885
 H         1.0088192375       -4.2743989194       -5.6552568875
 H        -3.4348684399       -0.4778088363       -3.9063776404
 H        -3.7578479459       -1.9963976237       -3.1626481871
 H        -5.7680660900       -1.7370509978       -0.9140520088
 H        -4.2363900004       -2.0458639618       -0.0440718235
 H        -2.8072471736        1.9845896162       -0.2277477292
 H        -1.7196532633        1.6630404766       -1.6396756146
 H        -1.7467619638        0.5512613890       -0.1555769086
 H        -4.7987283787        2.2808074340       -2.1882518486
 H        -3.8329912722        1.3971100994       -3.2763396554
 H        -5.3662427824        0.6656436884       -2.6442395995
 H        -6.3340945953       -2.3877373021        1.4082394162
 H        -6.7906961637       -0.7766074351        1.0075546968
 H        -3.4031443357       -2.0007540416        4.5352758028
 H        -4.2182870883       -2.1797288961        6.1199237097
 H        -4.1174573549        0.3019095480        4.4526229964
 H        -5.2392624780       -0.2209900865        5.8036383977
 H        -5.6036521168        1.0389437791        4.5582679947
 H        -7.5861900032       -0.0770419888        2.8483009296
 H        -7.7416213029       -1.7151786770        3.5511821678
 H        -7.6364075574       -0.3762325209        4.6441737323
 H        -4.3114083046       -4.2145780364        6.3756950287
 H        -4.3729221895       -4.7252169740        4.6582044912
 H         1.0029256206       -3.7488820865        5.2893628398
 H         1.5554905663       -3.3263614883        3.5493413954
 H        -0.9478149372       -6.6797311859        5.7457205855
 H        -0.3518618985       -5.2632954856        6.3579609848
 H         0.4277248583       -6.2041139618        5.0185803879
 H        -2.4131386003       -5.6084403889        2.5840370159
 H        -1.4848999450       -6.8769015283        3.3178038605
 H        -3.0677846370       -6.2358664220        3.9830896025
 H         1.3027884216       -1.4500691466        5.2698921094
 H        -0.4277932435       -1.8658997056        5.3827130068
 H         3.0908818532        0.7810353520        0.9987512541
 H         3.6552717483       -0.7875451316        1.5704939016
 H         1.3246182778        2.1857497293        2.2180143806
 H        -0.1816618354        1.6783877429        3.1454522127
 H         0.0052442737        1.3915638898        1.4736796048
 H         1.8365146670        1.0672626772        4.5106648031
 H         2.8286876654       -0.4161687462        4.2685938957
 H         3.0336957252        0.9095310630        3.2118960841
 H         3.3912657776       -1.9204694760       -0.3239111861
 H         2.6016316893       -0.6743678582       -1.2362486168
 H         7.9732722633       -3.1676759016       -0.1564056812
 H         7.3884672614       -3.8785579401       -1.8044581364
 H         8.1334813956       -2.2417839955       -1.5871013437
 H         3.6556500453       -2.0580707252       -3.3665101005
 H         3.8263265556       -3.0199281261       -1.9877176698
 H         4.9708183637       -3.2295705900       -3.3192443529
 H         6.9103031101       -1.6316136213       -3.5724007134
 H         5.7028402338       -0.4023770638       -3.7742310649
 H         7.1055314515       -0.2484706935       -2.6026387751
 Na       -1.6418945139       -1.6654641365        1.4023758985
