155

 C        -0.9287505674        8.1428651524        0.8499342517
 C        -0.1816052188        6.8207711852        1.2854687301
 C         1.3496442180        6.9358742048        1.3234157342
 C         1.8150285820        6.4841527960       -0.1010923054
 C         0.9987410959        5.5689886985       -1.0040143710
 C         2.0743672863        8.2935789405        1.5995074809
 C         1.9480393440        5.8856723212        2.3707757716
 O        -0.6787655854        5.7321521039        1.5108958058
 O         2.8760690842        6.8956953619       -0.4838850435
 C         1.7962591269        4.4790152440       -1.7476302079
 C         0.9385773250        3.7585579319       -2.8935690570
 C         1.7705464643        3.0969207571       -4.0604062087
 C         0.8302609524        1.8431666034       -4.7346237279
 C         1.0678446395        1.6525022661       -6.2005736090
 O        -0.2571457302        3.8691947011       -3.0097870118
 O         0.2477324759        1.0388529461       -4.0693689784
 C         2.0109136088        4.3060471608       -5.0014055174
 C         3.0936430038        2.3719712283       -3.6664309667
 C         0.5375086060        0.1883727793       -6.4762865846
 C         1.3107447441       -0.9852464246       -5.7777544456
 C         0.6726663709       -2.4610302293       -6.0856431595
 C        -0.8126446847       -2.4614732657       -5.4400489796
 C        -0.9480938688       -2.1191756251       -3.9068407562
 C         0.6757350149       -2.6942412801       -7.6397509519
 C         1.4861170666       -3.5690302516       -5.2925028501
 O         2.2423253132       -0.8980010983       -5.0905229588
 O        -1.8340078259       -2.7346107151       -6.0149945172
 C        -2.4970331344       -2.2251839317       -3.4944421793
 C        -2.5603156482       -1.6442583684       -2.0235596097
 C        -3.3057459446       -0.1686353695       -1.9207032419
 C        -4.1121422200       -0.0689658242       -0.5822550689
 C        -5.1316169659       -1.2156366543       -0.5558022016
 O        -1.8959336257       -2.1004734477       -1.0975508323
 O        -3.9686008504        0.8490959391        0.1875247567
 C        -2.2282417727        0.8355605192       -2.0281027246
 C        -4.3566157388        0.2663402921       -3.0417224139
 C        -6.0095651171       -1.3666262549        0.7596587296
 C        -5.1501564437       -1.7221366739        1.9935175551
 C        -5.8668225738       -1.6252961503        3.4525550764
 C        -5.2912530581       -2.7371185405        4.3663334749
 C        -3.7577450064       -2.7577225774        4.7608549528
 C        -5.8076184880       -0.1246899557        3.9845803631
 C        -7.4650474594       -1.9929440832        3.3512553909
 O        -3.9539734262       -1.8768116564        1.9093640084
 O        -6.0245351422       -3.7121591135        4.5634082048
 C        -3.2793177228       -3.8106230646        5.7091287670
 C        -1.8255030215       -4.5315189537        5.4832560041
 C        -1.5103645662       -5.1036596085        4.1108919152
 C        -1.2142415522       -4.0538826692        3.1274275090
 C         0.2167387290       -3.4904468339        3.2344717041
 O        -0.9731255284       -4.6699740843        6.3626838625
 O        -2.0514011915       -3.5581892788        2.3288005409
 C        -0.2775765883       -6.1392406425        4.3033395486
 C        -2.6587517963       -5.9615185769        3.5363703880
 C         0.5108443022       -2.2961358435        4.2380442554
 C        -0.2296552032       -0.9817658604        3.8018815727
 C         0.6871907011       -0.0071427078        2.9511521460
 C         1.2446795951       -0.7139208759        1.6037490772
 C         2.7643943949       -0.6661512913        1.3486076214
 C        -0.2187387207        1.1899973633        2.6159230020
 C         1.8172497952        0.4389914367        3.9137660078
 O        -1.2978237824       -0.6383135773        4.2328912416
 O         0.4318096817       -0.9610353928        0.7194155099
 C         3.1038803016       -1.1670731962       -0.0433360084
 C         4.5047434322       -0.6135971118       -0.4970193980
 C         5.4737970136       -1.3611295079       -1.6657464473
 C         6.1363831486       -2.5262500222       -0.9335992773
 C         7.5096426909       -2.3900300009       -0.2471327635
 O         4.8986344254        0.3701915722       -0.0000698360
 O         5.4387718107       -3.5289619907       -0.8412650756
 C         4.4890362976       -1.7459801300       -2.8424760643
 C         6.5910241647       -0.3997410851       -2.1431564336
 H        -1.4974588856        7.7606319662       -0.1208091682
 H        -1.6949629066        8.4993669080        1.5835977131
 H        -0.2471917767        8.9420050194        0.6185445668
 H         0.1429196672        5.0301386356       -0.5246788948
 H         0.3439426973        6.1146311079       -1.7667812644
 H         1.6061118521        8.6484898784        2.4847163421
 H         1.8354819132        8.9645538767        0.8174998445
 H         3.1682697932        8.2217254876        1.6480129788
 H         1.3261953938        5.0923457547        2.6810281830
 H         2.9779888873        5.5545880058        1.9575388986
 H         2.0081960131        6.5816129937        3.1910439987
 H         2.7933865103        4.8247088567       -2.1267327429
 H         1.9248342290        3.6558551659       -1.0090614592
 H         0.5409654630        2.3306720764       -6.8427404255
 H         2.0637414211        1.6218645061       -6.5759600419
 H         2.6116050306        3.9966364222       -5.8996871659
 H         2.6176784639        5.0667339177       -4.5276030053
 H         1.0811861455        4.8586924814       -5.2784099420
 H         3.5535360000        2.0010101788       -4.5873153634
 H         3.7295013173        3.1392784666       -3.2060715471
 H         2.7063416103        1.5699565981       -3.0110043317
 H         0.5592342769       -0.0339345504       -7.5000633497
 H        -0.5642111431        0.0508063220       -6.3644436038
 H        -0.3606166660       -2.8924448733       -3.4774094433
 H        -0.5523896567       -1.1252632836       -3.7222784476
 H        -0.1686660869       -2.1336992716       -7.9390322231
 H         0.5132605278       -3.7618340433       -8.0724205053
 H         1.6753695189       -2.3943657660       -8.0017871576
 H         1.9786551682       -4.2405500083       -5.9417863862
 H         2.2404567303       -3.0712717801       -4.6928280699
 H         0.8340561329       -4.0746081249       -4.5583579207
 H        -3.1317429815       -1.6555201350       -4.1812860589
 H        -2.8151992277       -3.2199812328       -3.6042673527
 H        -5.7489457659       -0.9983727077       -1.4511538220
 H        -4.7464425241       -2.2207903049       -0.6266993428
 H        -2.5825779869        1.8293802213       -1.9331046514
 H        -1.6828630803        0.7816054522       -2.9607015079
 H        -1.4370907732        0.6337856830       -1.1905887627
 H        -4.7169073435        1.2065814071       -2.7095786981
 H        -4.0707891353        0.4025088702       -4.0690019039
 H        -5.1557415061       -0.4830930633       -3.0105543546
 H        -6.8571071312       -2.0650294823        0.6317856755
 H        -6.4414414312       -0.3733536314        1.0626009279
 H        -3.3309312106       -2.9169061726        3.7393963668
 H        -3.5348943628       -1.7081986418        5.0250651624
 H        -4.7386158360        0.1032607863        4.0983747672
 H        -6.2201227703       -0.0866473661        4.9823483398
 H        -6.4472020617        0.4430768853        3.3988676269
 H        -7.9317344996       -1.1331050776        2.8866626949
 H        -7.6288642909       -2.8436668483        2.6994148289
 H        -7.9696502425       -2.1261966931        4.2924055425
 H        -3.3568291246       -3.4844746440        6.8171729206
 H        -4.0133867913       -4.6542127670        5.7692285769
 H         1.0300485547       -4.2310471857        3.3703831945
 H         0.4580325770       -3.1077085910        2.1853323655
 H        -0.6124073814       -6.7326639749        5.1340379540
 H         0.5861877140       -5.6198977955        4.6300848787
 H         0.0647933870       -6.7332163588        3.4573973932
 H        -3.4373394272       -5.3484322520        3.1433517911
 H        -2.3912655351       -6.5744188402        2.7132918683
 H        -3.1616992767       -6.7357453778        4.1636104220
 H         1.6111543890       -2.1224612001        4.0609193237
 H         0.5127318276       -2.4442741624        5.3402105551
 H         3.1795717700        0.3139303499        1.5210017855
 H         3.1961374967       -1.2521265919        2.1363700147
 H         0.2147957963        1.9392352760        1.8793082742
 H        -0.4659857519        1.8604913971        3.4334509707
 H        -1.1346056406        0.8405402578        2.1915073894
 H         1.4127948096        0.8859286853        4.9024156053
 H         2.5044074160       -0.2258678487        4.2943945363
 H         2.4140688499        1.2406177346        3.5239491109
 H         3.2193860127       -2.2718239099       -0.0634928223
 H         2.2780988394       -1.0255161055       -0.7473395211
 H         7.6195976371       -3.2149315576        0.4770949496
 H         8.3716357555       -2.4933391615       -0.9659067930
 H         7.5667216708       -1.3755838717        0.1228954058
 H         3.9254815356       -0.9054527937       -3.1707009741
 H         3.8417689509       -2.5229182688       -2.4264405967
 H         4.9167938519       -2.1789464369       -3.6749551850
 H         7.2207424852       -0.8975701832       -2.9236770141
 H         6.2260815735        0.5481466751       -2.4420923176
 H         7.3016540713       -0.0372891800       -1.3583651593
 Na       -1.7280664124       -1.6082785625        1.1695833162
