155

 C        -1.0489533703        8.2642936311        1.0473730323
 C        -0.2260907514        7.0239783405        1.3254669156
 C         1.4444178882        7.0251870517        1.2788631115
 C         1.9937164516        6.5062902350       -0.1974967363
 C         1.1272279169        5.5508814079       -0.9386470762
 C         1.8734362090        8.4835827612        1.6744406638
 C         1.9411441213        5.9114155574        2.2690569058
 O        -0.8274110607        6.0060531395        1.6238392288
 O         3.0152996356        6.9552310925       -0.6585494008
 C         1.7926403772        4.3274091757       -1.6074220709
 C         0.8302921420        3.7481750787       -2.7624468500
 C         1.6136503176        3.1747279995       -4.0248740715
 C         0.8012352536        2.0001191518       -4.6867957809
 C         0.8894459873        1.5649121216       -6.1606845545
 O        -0.3891975360        3.7350410826       -2.6484070546
 O        -0.0169040749        1.4608666424       -3.9445932499
 C         1.8426547810        4.3388825546       -5.1056716947
 C         3.0443179268        2.5040928525       -3.6094793314
 C         0.3148536580        0.1848610033       -6.4251544783
 C         1.2463456053       -0.8861834398       -5.8392331618
 C         0.9553336340       -2.4562689314       -6.0089991089
 C        -0.4634707442       -2.5089760266       -5.4357056772
 C        -0.6880235004       -2.2526967545       -3.9014714270
 C         0.7495878705       -2.7932730165       -7.5506878622
 C         2.0020558094       -3.3365689878       -5.2689999740
 O         2.3090567435       -0.5016232291       -5.2959376545
 O        -1.4634682875       -2.6796880581       -6.0684157446
 C        -2.1478066806       -2.3062093270       -3.4635401324
 C        -2.4787915888       -1.6649220248       -2.1155416095
 C        -3.2378899458       -0.3617910368       -2.0367713555
 C        -4.0387922620       -0.2683059501       -0.6778525973
 C        -5.3160537415       -1.1809740877       -0.6202080803
 O        -2.0176356893       -2.1014248175       -1.0750279671
 O        -3.7874662630        0.4860872745        0.2414247556
 C        -2.0199164714        0.7240052419       -1.9481559324
 C        -4.1655875484       -0.1079281279       -3.2251275865
 C        -5.9768963576       -1.0966635562        0.7689251133
 C        -5.1618620791       -1.6397474276        1.9964023675
 C        -5.8547809770       -1.7716931908        3.4045419177
 C        -5.0980562727       -2.8983941442        4.2914823205
 C        -3.6829333387       -2.6167469718        4.7691679690
 C        -5.7070298124       -0.3544252645        4.1705738537
 C        -7.3167888617       -2.1668600910        3.1051601470
 O        -3.9368241377       -1.8569378376        1.8802437732
 O        -5.7110145702       -3.7996610507        4.8436330101
 C        -3.1978940265       -3.8256026750        5.6920074683
 C        -1.9161338538       -4.5023669965        5.3574194009
 C        -1.5590150394       -5.2674060589        3.9555416490
 C        -1.1569868772       -4.2205849332        2.8467440367
 C         0.2402250733       -3.4653439604        3.0295364369
 O        -0.9872077915       -4.4334898126        6.1420442853
 O        -1.9050294173       -3.7507064854        2.0218536702
 C        -0.4586698226       -6.3233917910        4.1128224445
 C        -2.8468391851       -5.9222176770        3.5153228025
 C         0.3473188319       -2.5004497661        4.2426712937
 C        -0.2834154063       -1.1665849977        3.8176988723
 C         0.6042592944       -0.0020786109        2.9840521500
 C         1.1707666711       -0.6052354629        1.6559065553
 C         2.7170252819       -0.6772690237        1.4671933746
 C        -0.4787907081        1.0207829260        2.5160741782
 C         1.6494667969        0.6927153703        3.8766090366
 O        -1.4364316160       -0.9302862083        4.1328329757
 O         0.4152045459       -0.9830960694        0.7775941065
 C         3.2128434640       -1.1089918130        0.0156830577
 C         4.5318098999       -0.4961284826       -0.3991037223
 C         5.3370914914       -1.2930457977       -1.5275127810
 C         5.9561058618       -2.5697598294       -0.8497508864
 C         7.2894625981       -2.4199018753       -0.0369125852
 O         5.0161160739        0.4538901240        0.2341566055
 O         5.3606642874       -3.6096698711       -0.9971341985
 C         4.5204600887       -1.7794836094       -2.7102623949
 C         6.3005925543       -0.1574948082       -2.0578940764
 H        -1.2111498829        8.4725158101        0.0438836072
 H        -1.9132258966        8.0694211619        1.5998447456
 H        -0.6337797497        9.1252027557        1.5627827188
 H         0.3323370136        5.1400951963       -0.3669829294
 H         0.5946005115        6.0650974303       -1.6829906593
 H         1.2998433484        8.7415027247        2.5405477394
 H         1.7600701191        9.2372165905        0.9006243852
 H         2.9336813182        8.4484181106        1.8438703202
 H         1.6727726045        4.9616342778        1.6832958677
 H         2.9575564965        5.8641706628        2.3111048557
 H         1.3277845465        5.9706606249        3.2053043685
 H         2.7520340367        4.5669418723       -2.0480441089
 H         1.9284364038        3.6168628508       -0.7786651464
 H         0.3967584633        2.2505692946       -6.8767352188
 H         1.9634603776        1.4261766095       -6.4731969409
 H         2.3630291132        4.0859884534       -5.9969747871
 H         2.3988605378        5.1599973991       -4.6077105599
 H         0.9131383251        4.7667271242       -5.4045116382
 H         3.4742076995        2.1326626455       -4.5416694283
 H         3.5587880915        3.3173191185       -3.1635944889
 H         2.8788209946        1.6391235415       -2.9802187356
 H         0.1625492510       -0.0787728259       -7.5120989353
 H        -0.7007905572        0.1498079556       -6.0745717966
 H        -0.1329097815       -3.0201417686       -3.3009448060
 H        -0.2881638101       -1.2462125346       -3.7335957305
 H        -0.1811638331       -2.3539532997       -7.9557348672
 H         0.6062576473       -3.8018953784       -7.6706800288
 H         1.6940352010       -2.6797321440       -8.0737499321
 H         2.4123425548       -4.1857485019       -5.8989901590
 H         2.8311027146       -2.6436731578       -4.9665570628
 H         1.6145449389       -3.6870972380       -4.3186284706
 H        -2.7800514916       -1.8784519801       -4.2111834411
 H        -2.4346977630       -3.3900677403       -3.4860649812
 H        -6.0088505914       -0.8452621993       -1.3937962631
 H        -5.2059904439       -2.2479911280       -0.7857136965
 H        -2.3627353772        1.8043993975       -2.0398598521
 H        -1.3811518242        0.5324650002       -2.7760747485
 H        -1.4725814631        0.6585340051       -1.0175785465
 H        -4.7342480710        0.8413798888       -3.2519740869
 H        -3.4443063084        0.0540780195       -4.0533663395
 H        -4.7040293900       -0.9865896737       -3.5166577047
 H        -6.9377278448       -1.6373076131        0.7629373022
 H        -6.2477561281       -0.0780871894        0.9494394483
 H        -3.1897611720       -2.4157291749        3.8299321084
 H        -3.7907184517       -1.6769110702        5.3207923691
 H        -4.6802746571       -0.1782418478        4.3304523442
 H        -6.2344701116       -0.2842083817        5.1217448816
 H        -6.2010756302        0.3556765757        3.3800151305
 H        -7.8821012935       -1.3469341902        2.6574466265
 H        -7.3045365443       -3.0754931133        2.4800958140
 H        -7.8962145690       -2.4610358034        3.9906534751
 H        -3.1145123384       -3.6090314528        6.7248970896
 H        -4.0868495932       -4.5214428997        5.7039818462
 H         1.1340752228       -4.1180346454        3.0082401263
 H         0.4227836450       -2.9533980513        2.1276691782
 H        -0.6363338226       -7.1956655523        4.7754690069
 H         0.4970607223       -5.8486221694        4.4602743479
 H        -0.2988875827       -6.6781352023        3.1190892076
 H        -3.6998986670       -5.2603282530        3.2298184071
 H        -2.7570462857       -6.6480004836        2.6488415578
 H        -3.2979326386       -6.5537446402        4.2562664111
 H         1.3963846396       -2.3419963655        4.5565952656
 H        -0.1280469183       -2.8894064268        5.1583724145
 H         3.2141156441        0.2733982338        1.8116387694
 H         3.2280978383       -1.4563375817        2.1129802120
 H        -0.1712452491        1.8535019407        1.9933260055
 H        -0.8861441901        1.4266114350        3.4003012026
 H        -1.2773808329        0.6402770031        1.8948773699
 H         1.2413174788        1.1432759518        4.7206294950
 H         2.4034574113       -0.0193472242        4.3570354880
 H         2.3036643538        1.4600653956        3.4505013139
 H         3.4117935461       -2.1841123178        0.1306263895
 H         2.6165170671       -1.1443934596       -0.9314391250
 H         7.3104209440       -3.1950730752        0.7177301893
 H         8.1028242496       -2.6923612179       -0.6691074861
 H         7.4600041408       -1.3764193037        0.2361915729
 H         4.1882603481       -0.9162061462       -3.3163676409
 H         3.6773749243       -2.4625609730       -2.4946827840
 H         5.2542167063       -2.2615299031       -3.4396126962
 H         7.0745535795       -0.5408440293       -2.7443687485
 H         5.6332448947        0.6579198698       -2.4644721921
 H         6.9098039224        0.3540624561       -1.3445309391
 Na       -1.9660000912       -1.4921042418        1.1447957846
