155

 C        -0.5341297207        9.1395233566        1.3536789059
 C        -0.1293980532        7.7465444506        1.7276245644
 C         1.3241667504        7.3492585889        1.3826104258
 C         1.0704246160        7.1518708594       -0.1640885830
 C         0.9989371560        5.7356052504       -0.6954529387
 C         2.3192038562        8.5542405429        1.6143453237
 C         1.7186626203        6.0867964744        2.0781780973
 O        -0.8483281872        6.8442282777        2.1432261550
 O         0.9096315874        8.0945590894       -0.8587473195
 C         0.3772729843        5.5872395340       -2.0826637240
 C         0.9538096958        4.3415755275       -2.8947913519
 C         0.8928303315        4.2311373213       -4.4877956732
 C         0.8539795868        2.6957348952       -4.9646273638
 C         1.9005032060        2.1296532420       -5.9819033275
 O         1.4190426501        3.3974127955       -2.3014121745
 O        -0.1149698733        1.9884277486       -4.6923476383
 C        -0.4413605931        4.7877534011       -5.0884195881
 C         2.0673910397        4.9976372671       -4.9754965029
 C         1.5824487426        0.7477543335       -6.5023259887
 C         2.1849984638       -0.3083439075       -5.5367072707
 C         2.0360240874       -1.7834427127       -5.7663301067
 C         0.3578672871       -2.0577427356       -5.5723903165
 C        -0.0715525980       -2.1251260451       -4.0813086044
 C         2.4437688486       -2.0938413147       -7.2876567485
 C         2.8318463500       -2.6180738409       -4.8065882095
 O         2.9010883883        0.1271047522       -4.6035532492
 O        -0.4479211803       -2.0832745591       -6.4336232152
 C        -1.3815902581       -1.3191702210       -3.8777071643
 C        -1.8536646953       -1.4396155055       -2.4579672980
 C        -3.1851293263       -0.4885804460       -2.2551273832
 C        -3.9854770819       -1.0249306076       -0.9402459511
 C        -4.6523292441       -2.4043759555       -1.2211827253
 O        -1.2848365964       -1.9702128610       -1.4898924079
 O        -4.1620272803       -0.4276745368        0.1094436665
 C        -2.6570860208        0.9697762180       -1.8894321867
 C        -4.0908821654       -0.2910968075       -3.4979576995
 C        -5.7132590595       -2.7910429096       -0.1199074857
 C        -5.0350417442       -2.8328366609        1.3291599586
 C        -5.8507243789       -2.9934608426        2.6573965733
 C        -5.3114805685       -4.3138707059        3.3090815923
 C        -3.9418461004       -4.2208016334        4.0080048901
 C        -5.6414240904       -1.7664621156        3.4939574700
 C        -7.4438110549       -3.1049631337        2.5067167389
 O        -3.8124853975       -2.9434645233        1.4161509695
 O        -5.9073667886       -5.3244378474        3.0419747028
 C        -3.5905080814       -5.4843903753        4.8717378003
 C        -2.0785830097       -5.7232989720        4.9367921584
 C        -1.1579411187       -6.1453294597        3.6826236065
 C        -0.7718898338       -4.9349786141        2.8493790806
 C         0.3986904950       -4.0021477731        3.2852451051
 O        -1.4703736240       -5.3310438082        5.9138472175
 O        -1.4466557612       -4.6010836561        1.8355781029
 C         0.1587945271       -6.7439124942        4.1634030544
 C        -2.0110653726       -7.1615009741        2.7905157201
 C        -0.0737530514       -2.9460964113        4.3937151514
 C        -0.9134899723       -1.7832366080        3.7029446382
 C        -0.1687679406       -0.3401289344        3.5127532442
 C         0.6444851503       -0.4661217983        2.1963753371
 C         1.9217626850        0.4069222370        1.9577690345
 C        -1.2689936022        0.6472819117        3.1889597354
 C         0.6865986384        0.1216398028        4.7396052351
 O        -2.0591022588       -1.9636382845        3.4141378473
 O         0.3268843486       -1.1510111526        1.2857539291
 C         2.8168638156       -0.1785166950        0.8936297120
 C         4.2258962250        0.3795442800        0.8957275496
 C         5.2942347331       -0.0622542226       -0.1746312176
 C         5.4918523957       -1.6218192253        0.0914883512
 C         6.6801979388       -2.2546983837        0.7831010921
 O         4.5901574195        1.2966402554        1.6131257949
 O         4.6056544075       -2.3622394863       -0.1915680237
 C         4.7371751979        0.2345459415       -1.6034857363
 C         6.6162935474        0.6498601709        0.1541035265
 H        -0.0752954774        9.3784343583        0.4019649588
 H        -1.5416016180        9.2356100840        1.3653833273
 H        -0.1671045456        9.7727168507        2.1395271082
 H         2.0404035897        5.4264271809       -0.7909626112
 H         0.5225914147        5.0860172214        0.0275388899
 H         1.9887947308        9.3746632296        2.3160466984
 H         2.5022223442        9.0829608342        0.6302884935
 H         3.2975179911        8.1996319347        1.9346737910
 H         1.2362941858        5.1493605606        1.7570236596
 H         2.7838518753        6.0055712978        1.9818709779
 H         1.5798172756        6.1282087958        3.2076623483
 H        -0.7517604114        5.4401900245       -2.0522342620
 H         0.5261729531        6.5124828799       -2.7084863014
 H         1.9155321516        2.7737751780       -6.8665359582
 H         2.8777009927        2.2008434447       -5.4231804761
 H        -0.2589964967        5.2618367234       -6.0665954446
 H        -0.7991566690        5.5936286521       -4.4616834214
 H        -1.1672972536        3.9510631555       -4.9893654129
 H         2.2856681418        4.8878220720       -6.0423835169
 H         1.9841173113        6.1232287364       -4.8877268367
 H         2.9884688556        4.7873414974       -4.3754154311
 H         1.8084705773        0.4735491124       -7.4958582658
 H         0.4153148222        0.6630959304       -6.5467728546
 H        -0.2617690256       -3.1450373798       -3.8254606684
 H         0.6788932921       -1.7883819160       -3.4183128691
 H         1.7303228728       -1.4707685535       -7.9450020028
 H         2.2588763926       -3.1386603148       -7.4672634370
 H         3.4207340223       -1.7763629203       -7.6115556358
 H         3.4789763079       -3.3376402773       -5.3328308495
 H         3.5343256110       -1.9609658198       -4.3527123765
 H         2.2508390328       -3.0903687756       -4.0131355209
 H        -1.3706595516       -0.2151883559       -4.1322433840
 H        -2.1285529187       -1.7463169525       -4.5202376427
 H        -5.1389608020       -2.5356040662       -2.2434290369
 H        -3.8588213978       -3.0766657986       -1.1804785916
 H        -3.3743809276        1.8732368500       -1.8554849049
 H        -1.8849759871        1.2696718556       -2.5345313113
 H        -2.2696811615        0.8491381759       -0.8994923495
 H        -4.9587831385        0.3417151673       -3.3758595200
 H        -3.5314950650        0.0695191417       -4.3524239190
 H        -4.4929929251       -1.2743390822       -3.8895025757
 H        -6.2304011285       -3.6970376861       -0.3339713258
 H        -6.5744254213       -2.0925899851       -0.0008838105
 H        -3.1080009907       -4.1765757593        3.2919077883
 H        -3.9709380173       -3.2904582768        4.6318694154
 H        -4.5665460965       -1.5232079599        3.5149651375
 H        -6.0483358948       -2.1006929881        4.4608927774
 H        -6.1714403998       -0.8496878836        3.2729519669
 H        -7.6476680494       -2.1698383135        1.9468334760
 H        -7.9009768719       -3.8552090280        1.8812678253
 H        -8.0126148434       -3.0452261393        3.4729908612
 H        -3.9442681766       -5.2498234385        5.8689783193
 H        -4.0562286532       -6.3578675926        4.5656714653
 H         1.2836460065       -4.5699638959        3.6179846974
 H         0.8097037200       -3.4370389257        2.3756515774
 H        -0.0694446189       -7.5435122766        4.8357113032
 H         0.6812705841       -5.9755950861        4.7291139675
 H         0.7065985436       -7.2254474002        3.3177292116
 H        -2.9661954355       -6.7160128260        2.3789304910
 H        -1.3985306471       -7.4652727555        1.9963357122
 H        -2.4594598691       -7.8563725407        3.4940960639
 H         0.7855395384       -2.4044894807        4.7689225559
 H        -0.7177318190       -3.2629025720        5.2001924151
 H         1.5018308193        1.4331172681        1.9718779075
 H         2.6527190169        0.4327214640        2.8263890947
 H        -0.8712506231        1.6901084392        3.1048679240
 H        -2.0093227438        0.5423708448        4.0409487015
 H        -1.7822256346        0.3078523932        2.2573461873
 H         0.2240416685       -0.2473479414        5.5910645047
 H         1.7181662568       -0.3203892516        4.6180113028
 H         0.6295526001        1.2339309614        4.6350581930
 H         2.6555974411       -1.2231990893        1.0258006946
 H         2.3881655774       -0.1469570908       -0.1222678057
 H         6.6460534202       -2.1201014275        1.8633967915
 H         6.5502172602       -3.3482044331        0.6259783477
 H         7.6158304902       -1.9638776943        0.2644331430
 H         4.3795949165        1.2704572406       -1.6414779645
 H         3.9212605118       -0.3720048829       -1.8171387607
 H         5.4876169545        0.0194688489       -2.3640804741
 H         7.2592882991        0.3985951674       -0.7088032105
 H         6.4050393698        1.7332449604        0.0395271848
 H         7.0698984869        0.2326298192        1.0431107800
 Na       -1.5193033016       -2.7828946089        0.7361050887
