155

 C        -0.7865423283        9.0338237207        1.5571088206
 C        -0.1604268404        7.6468486250        1.7249602490
 C         1.2752701659        7.2937332032        1.2610886366
 C         1.1603930855        7.1047250889       -0.2944489387
 C         1.1582929161        5.7308464676       -0.9326882841
 C         2.2607780305        8.4717192842        1.5874312226
 C         1.8523769419        6.0822037514        2.0594279513
 O        -0.9124715342        6.8217217722        2.1113853100
 O         0.9394378020        8.1093631666       -0.9786535334
 C         0.3570919011        5.6241803760       -2.2932316256
 C         0.8913781368        4.3758147208       -3.0132365974
 C         0.6719935012        4.2775883492       -4.5516023566
 C         0.7455842720        2.7518108216       -4.9290990025
 C         1.9957317525        2.3149503375       -5.7334779904
 O         1.5599572859        3.5746731371       -2.4079689729
 O        -0.0918427484        2.0204168619       -4.4686324872
 C        -0.6148233375        4.9403871754       -5.1298180411
 C         1.8911501156        5.0819713540       -5.1546318144
 C         1.7702827233        0.8999452617       -6.2321309708
 C         2.3465210782       -0.2601365408       -5.2976113875
 C         2.1126929593       -1.7723581184       -5.7275334882
 C         0.5744815095       -1.9613775150       -5.4466865350
 C         0.0102461978       -1.9648620066       -4.0145008258
 C         2.3474843755       -2.0548746874       -7.2092709874
 C         3.0201668770       -2.7420035464       -4.8759598521
 O         3.0034460112       -0.0159228313       -4.3205676522
 O        -0.1750863777       -2.0797430066       -6.3940946661
 C        -1.2072360168       -1.1547803305       -3.8003534210
 C        -1.9592150911       -1.3284171917       -2.4274018997
 C        -3.1851667724       -0.4006783302       -2.1801610322
 C        -4.0202350395       -1.0529685052       -0.8733275688
 C        -4.6226281087       -2.5532875855       -1.1341221410
 O        -1.5633997848       -2.1422576695       -1.5699156793
 O        -4.2644341697       -0.4129096111        0.1185832610
 C        -2.5030055668        0.8510746706       -1.5021349236
 C        -4.2722753125       -0.0920760936       -3.3628567633
 C        -5.7134956558       -2.9688829319       -0.1704560126
 C        -5.0851025176       -3.1185135446        1.2293362732
 C        -5.9794443250       -3.1158800042        2.5698405571
 C        -5.5116008848       -4.5257280719        3.2996170965
 C        -4.1312038943       -4.4180146122        4.0588936459
 C        -5.5599779262       -1.7785220934        3.1606793754
 C        -7.5414519438       -3.1742573203        2.2552227153
 O        -3.8840323679       -3.2936170684        1.3348446124
 O        -6.1116243649       -5.5654186088        2.9817065283
 C        -3.4677382850       -5.7087727376        4.5937753399
 C        -1.9879627978       -5.6307107912        4.8050810040
 C        -1.0777290679       -6.1208486104        3.6089874867
 C        -0.7253255170       -4.8898942988        2.6922146546
 C         0.3764895208       -3.8317294783        3.1327574858
 O        -1.4583843735       -5.2309345573        5.8047525025
 O        -1.2712649639       -4.7669478835        1.6482232950
 C         0.2029178004       -6.8470026340        4.1590753680
 C        -1.6636903044       -7.1522813102        2.6379089557
 C         0.1093613670       -2.8806280967        4.2665352594
 C        -0.8521737925       -1.7540331089        3.7771308083
 C        -0.2638180862       -0.3230261833        3.4629737572
 C         0.6772842405       -0.4779253689        2.2107984743
 C         1.9832141208        0.2590919507        2.2164067142
 C        -1.4510417236        0.6674098053        3.2831803942
 C         0.5569519248        0.0957177055        4.8057802753
 O        -2.0113017304       -2.0571702900        3.4215729200
 O         0.2554009852       -1.0798710253        1.1997155606
 C         2.7951183903       -0.0129497228        0.9884728614
 C         4.2657305716        0.5562905562        1.1805814365
 C         5.2787995422       -0.0407866618        0.0501232655
 C         5.4392021783       -1.6071101967        0.1151253211
 C         6.6863965208       -2.0872053899        0.8356277244
 O         4.5819424537        1.4697235786        1.9248760987
 O         4.6586775657       -2.3845952368       -0.4356822044
 C         4.6063759242        0.1375787310       -1.3569698895
 C         6.6465060122        0.7770677990        0.0204295942
 H        -0.6265773105        9.2376125195        0.5098127529
 H        -1.8789034149        8.9589041165        1.7944822992
 H        -0.2678075642        9.8617781042        2.1796968678
 H         2.2174553003        5.5018595348       -1.1411546451
 H         0.6900794299        4.9818319332       -0.2651416599
 H         2.3505289216        8.5410776361        2.6420884617
 H         2.0526603910        9.4181610951        1.2501318010
 H         3.2428052574        8.1932348206        1.2893381166
 H         1.2380268884        5.2139620597        2.0122167703
 H         2.9302717376        5.8311820202        1.7921260571
 H         1.9539253184        6.3110167003        3.0814924760
 H        -0.6398449538        5.5271846612       -2.0130666947
 H         0.3262052327        6.4314224111       -2.9709603140
 H         2.1649251523        2.9847267993       -6.6040086748
 H         2.8052174940        2.3271052380       -5.0003044757
 H        -0.4842622544        5.0670460502       -6.1894867736
 H        -0.7244604782        5.9726677549       -4.7528353303
 H        -1.4404669189        4.3706627536       -4.7722327887
 H         1.8518170569        5.3498947929       -6.1985868475
 H         2.0138280378        6.0382453676       -4.7155310042
 H         2.8402987990        4.6476058275       -4.9271892373
 H         2.3458514802        0.6085686352       -7.1762450935
 H         0.8110875105        0.6464645557       -6.5625040749
 H        -0.1874679185       -3.0505635671       -3.7876224453
 H         0.8376740213       -1.6594347889       -3.3104972609
 H         2.3549321586       -1.3038824194       -7.8915503571
 H         1.5629481586       -2.8019105252       -7.4068619066
 H         3.3432611497       -2.4645958400       -7.3124673744
 H         3.3179248216       -3.5706963503       -5.4793413506
 H         3.9166943504       -2.3856699468       -4.3224232648
 H         2.3844079680       -3.2077624581       -4.1130739422
 H        -1.0919321426       -0.0897893626       -4.0007229324
 H        -1.8564977442       -1.5770591311       -4.6389346292
 H        -5.0578936660       -2.5387138760       -2.0946063712
 H        -3.7535791160       -3.3250257987       -1.1587437564
 H        -3.3071552137        1.4594965920       -1.2609208704
 H        -1.9091627341        1.4680158694       -2.2746477064
 H        -1.8187375842        0.6473774408       -0.6484472812
 H        -5.0218002389        0.5860879004       -2.9494812367
 H        -3.8530953099        0.4637794573       -4.2040891166
 H        -4.7081019952       -0.9812724756       -3.7915495707
 H        -6.0497077732       -4.0606661059       -0.3211803756
 H        -6.6589765997       -2.4615001735       -0.2133574866
 H        -3.3947215663       -3.8848037695        3.4770783234
 H        -4.4184173323       -3.8012060289        4.8869884009
 H        -4.4632929819       -1.8795073542        3.3383850370
 H        -6.1390089737       -1.2047832094        3.9196239795
 H        -5.6758950835       -1.0963408021        2.2960153802
 H        -8.0007673878       -2.2682641274        1.9443091004
 H        -7.7912025991       -3.9079886150        1.4905990232
 H        -7.9942629129       -3.4598109943        3.1508936099
 H        -3.9081442588       -5.8590780027        5.6049029134
 H        -3.7473599871       -6.6168305446        3.9874721419
 H         1.2731465346       -4.4494017545        3.4161178932
 H         0.6305104646       -3.2828977143        2.2404716835
 H         0.0016927461       -7.9273129976        4.1753469131
 H         0.2126163663       -6.4943188232        5.1589521753
 H         1.1211197605       -6.5125126427        3.6968689877
 H        -2.5487293661       -6.7095960228        2.3216251264
 H        -0.9964239903       -7.1866670596        1.7580865142
 H        -2.0622411962       -7.9590330068        3.2505109720
 H         1.0264432685       -2.4633554295        4.6852738682
 H        -0.4330976387       -3.4029441715        5.0443684063
 H         1.8117838049        1.3513600594        2.2880993531
 H         2.5117940965        0.0419397564        3.1368378608
 H        -1.1127487432        1.6370587555        3.3947191165
 H        -2.2334067146        0.4532872661        3.9197088726
 H        -1.8339308763        0.4993478086        2.3029374456
 H        -0.2425072337        0.1999768079        5.5827658095
 H         1.2774085807       -0.6224235338        5.0951847670
 H         0.9934926928        1.0438437907        4.5882082852
 H         2.7179528392       -1.1067817674        0.7247125895
 H         2.1754024710        0.3683571047        0.1628639422
 H         6.5018391942       -1.9868929096        1.9156487146
 H         6.8099037620       -3.1752853800        0.7370425411
 H         7.5327515996       -1.5524332188        0.4410603246
 H         4.4244338973        1.1920518300       -1.5292340155
 H         3.6708814895       -0.3792547909       -1.5484456724
 H         5.3073331335       -0.2852708668       -2.0203315677
 H         7.2843784625        0.3185413217       -0.7405565185
 H         6.4340329411        1.7874290447       -0.2771129900
 H         7.0806764655        0.7139291468        1.0722799694
 Na       -1.6537342594       -2.4760978615        0.6978233406
