155

 C        -1.4785741251        6.8520319950        1.7417910763
 C        -0.0644688812        6.5220177601        1.4036703416
 C         1.0315876472        7.7301020983        1.0056763539
 C         1.0868497300        7.6405002873       -0.6219942903
 C         1.9730664249        6.4865188479       -1.2726491903
 C         0.3990541592        9.0912091459        1.4838154444
 C         2.3857190985        7.3297559022        1.5577345553
 O         0.3080807413        5.3944722448        1.2330561561
 O         0.4735045357        8.4663785379       -1.2292798889
 C         1.4454756270        6.0098856524       -2.6924287192
 C         1.2041698840        4.4795674491       -2.9349537150
 C         0.2737992137        4.0726640534       -4.2049224340
 C         0.8015673693        2.6019759964       -4.6772617371
 C         1.7538835539        2.4803750965       -5.8983581329
 O         1.6545971184        3.7109797350       -2.1372261338
 O         0.4873581455        1.6538323392       -4.0346534757
 C        -1.2043614849        4.0471605849       -3.7361199006
 C         0.4355833970        5.1001542945       -5.3860553381
 C         2.2680528111        1.1059401881       -6.0935547913
 C         2.6122906475        0.3387481414       -4.7977336294
 C         2.3885918792       -1.2668203558       -4.8831198945
 C         0.8209744818       -1.7295871717       -4.8129429406
 C         0.2131968350       -1.6075146544       -3.4824860522
 C         2.8439994554       -1.7630180445       -6.2901016714
 C         3.2045808244       -1.8329071411       -3.6835353285
 O         3.1019995789        0.8740872912       -3.8994805317
 O         0.2332573671       -2.0520499123       -5.8319195088
 C        -1.3768930409       -1.2205940728       -3.5164448890
 C        -1.9887478820       -1.1383840662       -2.1285890269
 C        -2.8889681833        0.0818684236       -1.6297602750
 C        -3.7623231079       -0.4544716936       -0.4109067791
 C        -4.9886655858       -1.2968550382       -0.8637976075
 O        -1.5607949072       -1.8633554780       -1.2356649458
 O        -3.3789429701       -0.2352217945        0.6882618179
 C        -1.8764724505        1.1153201875       -1.0690135222
 C        -3.8208436376        0.6031347862       -2.8857944985
 C        -5.7724911189       -2.1110536759        0.1840206135
 C        -5.0917386778       -3.5231646981        0.4876689724
 C        -5.9906262280       -4.7487389132        0.8999488185
 C        -5.0120937039       -5.9949966347        1.2685989755
 C        -4.1511301027       -5.8262590343        2.5501125627
 C        -6.9805110253       -4.5096122355        2.1657399710
 C        -6.9574894176       -5.2283841312       -0.2796201196
 O        -3.8702001041       -3.7864363051        0.3852295065
 O        -5.0054585708       -7.1301989044        0.7991458936
 C        -2.7270706642       -6.1831817106        2.1714966347
 C        -1.6283376087       -6.1772875878        3.2200282172
 C        -0.1277860452       -6.0803919809        2.7115628881
 C        -0.0001612387       -4.7076802682        2.2468108074
 C         0.7485712840       -3.5875412181        3.0658726065
 O        -1.8584565297       -6.1899323537        4.3895287270
 O        -0.4282181557       -4.3593409801        1.1452689179
 C         0.7981160513       -6.5309104590        3.8836261190
 C         0.1579552216       -7.0862550515        1.5392365225
 C         0.0153231801       -3.0610210388        4.4285733477
 C        -1.2432392063       -2.2242177567        3.8556356224
 C        -1.0359892944       -0.6210872024        3.8347883844
 C        -0.0785406891       -0.2880510194        2.6723483351
 C         1.2314888616        0.4266568036        2.8982834677
 C        -2.5210006752       -0.0030027018        3.6333900675
 C        -0.5891737535       -0.1244789734        5.2555934362
 O        -2.2355685681       -2.8120089409        3.3732277172
 O        -0.3897061618       -0.5780093854        1.5161125365
 C         2.1695848032        0.7487896930        1.6253508405
 C         3.5786163535        0.8783903901        2.1573315037
 C         4.8336891873        0.9612473904        1.1282294221
 C         5.3281791134       -0.4870416238        0.8821732862
 C         6.7702756975       -0.9421000534        1.2126922835
 O         3.8584506294        0.8792812706        3.3167322949
 O         4.5042276838       -1.2678312653        0.4295406880
 C         4.2784530852        1.5738903191       -0.2080648842
 C         5.8770460438        1.8415297412        1.7748252244
 H        -1.8106102963        7.7122472974        1.0938802454
 H        -1.9840243580        5.9050776507        1.6546491669
 H        -1.5599062921        7.1799085817        2.8810145222
 H         2.9598626041        6.8186933972       -1.4791346472
 H         1.9779464716        5.6368375598       -0.5792520475
 H        -0.5110023855        8.9877738194        2.0383491557
 H        -0.0111720484        9.4005067203        0.4935054680
 H         1.0583942712        9.8767027708        1.9318079179
 H         2.5399599642        6.2326093315        1.4068351988
 H         3.1560781189        7.7602224219        1.0006765595
 H         2.6586929205        7.5633928739        2.6439000180
 H         0.4534035786        6.3950962540       -2.9413932908
 H         2.0994217909        6.4035307429       -3.4961531147
 H         1.2669670274        2.9112060837       -6.7761546688
 H         2.5922887237        3.1174704911       -5.6883243037
 H        -1.8495090401        3.5281212606       -4.4710014449
 H        -1.5951500847        5.0394176566       -3.5057853994
 H        -1.3274998530        3.4254814971       -2.8129054740
 H        -0.0974825851        4.7900714119       -6.2606246620
 H         0.1062026580        6.1493679377       -5.2924416429
 H         1.3960977126        5.2177296065       -5.8918754578
 H         3.1539061183        1.1679347609       -6.7378221443
 H         1.5654422843        0.4988530720       -6.7158730114
 H         0.3899453428       -2.5490221404       -2.9013355243
 H         0.7710785399       -0.7586513433       -2.9534330106
 H         3.6137578845       -1.1729021927       -6.7479286101
 H         2.0151273604       -1.9015082564       -6.8987237885
 H         3.4222812050       -2.6610412028       -6.1567290610
 H         2.7956201361       -2.8399121701       -3.4711675447
 H         4.2607994314       -1.7794287808       -3.8133780907
 H         3.0166659024       -1.2024580965       -2.8168452638
 H        -1.5324231075       -0.3096229050       -4.0656898903
 H        -1.9780684469       -2.0366025082       -4.0145391852
 H        -5.7432241646       -0.6309709303       -1.3556295830
 H        -4.5908365040       -1.9039489902       -1.6487155587
 H        -2.3279620867        1.8343812640       -0.4335380528
 H        -1.3504054489        1.5837172701       -1.9041322754
 H        -1.0276101823        0.4634822637       -0.5987220668
 H        -4.1935659470        1.5516636125       -2.5352933095
 H        -3.1572112697        0.8130699198       -3.6989764972
 H        -4.6585040395       -0.0780120544       -3.1158501244
 H        -6.7863923246       -2.3558426419       -0.2018109502
 H        -6.0157348686       -1.5023799927        1.0613866626
 H        -4.0545838112       -4.8537683009        3.0684350845
 H        -4.5008363348       -6.6194653529        3.2293631347
 H        -6.4889485181       -4.3158176225        3.1085257908
 H        -7.4114408793       -5.4595796431        2.4603007006
 H        -7.8656542585       -3.9388525307        1.7985068739
 H        -7.9730567089       -4.8008397993       -0.3730432856
 H        -6.4057848955       -4.9980088595       -1.1640468522
 H        -7.1184141425       -6.3214056673       -0.1588455782
 H        -2.8986295237       -7.1921548127        1.8146146332
 H        -2.4301088627       -5.5974582002        1.2688720646
 H         1.6953048245       -3.9359629010        3.4213954614
 H         0.8912463263       -2.7311006033        2.4072876551
 H         0.6075375424       -7.5614889309        3.9736292925
 H         0.6219185453       -6.1496786332        4.9277420256
 H         1.8124434682       -6.4190040988        3.7247876800
 H        -0.5221154382       -6.8444949439        0.7007093854
 H         1.2229738038       -7.1225091547        1.2550385375
 H        -0.3231026294       -7.9790064580        1.8437383219
 H         0.4919625183       -2.2488493464        5.0159828007
 H        -0.5161055575       -3.8410594820        5.0442446429
 H         0.8395686086        1.3868725994        3.2695086980
 H         1.6956173842        0.0615841459        3.7657321720
 H        -2.5878503089        1.0574265545        3.9307923128
 H        -3.0996593310       -0.5494100256        4.3601199912
 H        -3.0407554045       -0.2349560912        2.7000598702
 H        -1.0601997071       -0.7268139885        6.0899141968
 H         0.4707662099       -0.2931241858        5.3041523002
 H        -0.6422175758        0.8324129233        5.5601499355
 H         2.1809137120       -0.1078019005        0.9131568389
 H         1.7565012473        1.6028190130        0.9836346254
 H         6.8987969694       -0.6309114802        2.2669766758
 H         6.9098569625       -2.0198226306        1.2301827712
 H         7.5288142351       -0.5457805958        0.4879106725
 H         4.1409176174        2.5810409856       -0.2798955037
 H         3.3387452562        1.0134188632       -0.3739330087
 H         4.8696639541        1.2439578232       -1.0392370999
 H         6.7018875001        1.8886658675        1.0549858034
 H         5.4410689108        2.7774235042        2.1501668309
 H         6.0674938381        1.3861345016        2.6781145538
 Na       -1.8587438652       -2.4636059598        0.9241176451
