155

 C        -1.3003378495        6.1006527236        1.3611478663
 C         0.2507627904        6.3606607703        1.6284687268
 C         0.8583560078        7.7187487877        0.7939988370
 C         0.8685651022        7.2835241812       -0.6825030803
 C         2.1136573372        6.5153136569       -1.1720597664
 C        -0.1178396639        8.8647552190        1.0212486463
 C         2.2073832555        7.8458173370        1.4988818152
 O         0.9240143333        5.5529590843        2.2210902292
 O        -0.0676985793        7.5518978822       -1.4207993267
 C         1.9506157895        6.2469689363       -2.7145810456
 C         1.1485973946        4.9478328724       -2.8623602211
 C         0.3994387073        4.5593353685       -4.2435331876
 C         0.4216018235        3.0353292254       -4.6316898584
 C         1.6634052944        2.5830455684       -5.3952271855
 O         1.0235713520        4.1354722332       -1.9542266256
 O        -0.4425513975        2.2618484100       -4.2653542717
 C        -1.0355744392        5.0282712659       -3.9581094023
 C         0.8894769979        5.3974884193       -5.4329049242
 C         1.6712502726        1.0936923788       -5.9058812029
 C         2.7629760789        0.3885204568       -5.0197240246
 C         2.5005099907       -1.1216477351       -4.7407673937
 C         1.0215230534       -1.5570212655       -4.6814068027
 C         0.3506566387       -1.3263855134       -3.2607247595
 C         3.2114340138       -1.8309401537       -6.0527730809
 C         3.2311293821       -1.6659002972       -3.4543545806
 O         3.8884352222        0.8342150905       -4.7454462750
 O         0.4184756106       -2.1778242753       -5.5338919509
 C        -1.2567685373       -1.5028429885       -3.4253556150
 C        -2.0901661426       -1.4929147681       -2.1366941494
 C        -3.0199807465       -0.3183168462       -1.8691854659
 C        -3.7114582816       -0.6838667828       -0.5022593882
 C        -5.0463710833       -1.4109702973       -0.5906422477
 O        -1.9841204511       -2.3784391012       -1.2635764182
 O        -3.0892871348       -0.5587800703        0.5043723542
 C        -2.1422746998        0.9499639769       -1.6566516438
 C        -4.0364161797       -0.2299092482       -3.0734316680
 C        -5.3862650332       -2.4442632730        0.5642074583
 C        -4.7827359688       -3.8592617783        0.5264558817
 C        -5.5687657005       -5.1173583291        0.1220328914
 C        -4.5076336290       -6.4128500466        0.0002597438
 C        -3.8214413462       -6.8678259294        1.3193839526
 C        -6.6541647150       -5.3681739310        1.2930779053
 C        -6.2090985621       -4.8439909611       -1.2704587416
 O        -3.6359489077       -4.0705185349        0.8359593219
 O        -4.3390811164       -6.9025957177       -1.0795829977
 C        -2.3001524284       -6.8197388715        1.2290957704
 C        -1.6446541502       -6.6365754135        2.5602636045
 C        -0.0910058864       -6.2572595026        2.5866813007
 C        -0.0340233540       -4.7611100882        2.5075853822
 C         0.5597436593       -3.7419283672        3.5003063987
 O        -2.2510649153       -6.7600130282        3.5948204845
 O        -0.4963857714       -4.3160252084        1.4657051517
 C         0.4744827049       -6.9267965526        3.8157354815
 C         0.6721978450       -6.8461224535        1.4311989039
 C        -0.3403257753       -3.3581436444        4.6834130883
 C        -1.3414660816       -2.1918207962        4.0996908855
 C        -1.0083526164       -0.5642133928        4.4187251875
 C        -0.0261574223       -0.1949091299        3.2674544239
 C         1.2317539310        0.5927833016        3.5346216434
 C        -2.3036947394        0.1410752177        4.1438852920
 C        -0.5054732234       -0.3072789019        5.8962505866
 O        -2.3410430518       -2.4826805016        3.5508718808
 O        -0.1473343004       -0.6130280524        2.1554765281
 C         1.9028340967        1.3619895437        2.4395478278
 C         3.4532075235        1.5195455527        2.6956743475
 C         4.4601816045        1.5030421022        1.5424096158
 C         4.6096017699       -0.0119710080        1.1653684273
 C         5.9375081357       -0.7873869291        1.4458186865
 O         3.8503498143        1.7153701977        3.8310875607
 O         3.8198744826       -0.6495233214        0.5185322208
 C         3.8667754971        2.2471646188        0.2934034548
 C         5.7555548842        2.1868112408        2.0305561707
 H        -1.4430789086        6.1600283570        0.3059726546
 H        -1.6410029337        5.0909644275        1.6669929180
 H        -1.8295117105        6.8968808064        1.7807051369
 H         3.0398389745        7.0673441423       -0.9512915674
 H         2.1786762365        5.4730298442       -0.6811168940
 H        -0.8361629450        8.6940157415        1.8104983332
 H        -0.5842734514        9.0601888327        0.0859785942
 H         0.3477473441        9.8332182689        1.3329602466
 H         2.6605850315        6.8917547678        1.5201703462
 H         2.8747234335        8.4780334264        0.8051244244
 H         2.2048664413        8.3111433936        2.4347231755
 H         1.5091855893        6.9929845247       -3.3251275065
 H         2.9495585821        6.1067341941       -3.0833230182
 H         1.7456001740        3.4098631879       -6.1235155381
 H         2.5955316183        2.5602165693       -4.7791605778
 H        -1.5854973216        4.9280503268       -4.8843667554
 H        -1.0929983249        6.1045147744       -3.6459561569
 H        -1.5144541213        4.4531199634       -3.1877100773
 H         0.4580905878        5.0527505591       -6.3634658765
 H         0.5175601816        6.4196965704       -5.2904125205
 H         1.9680045037        5.6154841300       -5.5559691073
 H         1.9659406350        0.9487368178       -6.9126908892
 H         0.6472487123        0.6667724783       -5.7262064954
 H         0.6714535065       -2.0283714704       -2.5599959949
 H         0.4476531903       -0.3321503922       -2.8572779572
 H         4.0255312421       -1.2208098296       -6.3747512117
 H         2.5725963548       -2.0644497431       -6.9451660614
 H         3.4815385961       -2.9183282313       -5.8074176776
 H         2.8352790837       -2.6972537320       -3.2960939812
 H         4.2904081443       -1.8707323466       -3.6929442763
 H         3.0890094050       -1.1326960335       -2.5560298262
 H        -1.6483480623       -0.8436785710       -4.1715222866
 H        -1.4895196385       -2.4967869544       -3.8460891339
 H        -5.8993954381       -0.6161224941       -0.5674453641
 H        -5.0356041948       -1.9439234764       -1.4871178073
 H        -2.3629285547        1.5246612838       -0.7890897926
 H        -2.0910961993        1.6066652332       -2.5686239515
 H        -1.1534265162        0.6333320950       -1.3974082581
 H        -4.6478513411        0.7018835009       -2.8899756740
 H        -3.5757640399       -0.0357907989       -4.0601346638
 H        -4.6539316586       -1.1082886429       -3.2268352219
 H        -6.4705591561       -2.4411474659        0.5397954192
 H        -5.1236853158       -1.8973397561        1.5348603726
 H        -4.1835463435       -6.1767900470        2.0601355021
 H        -4.0195056045       -7.8222104756        1.6995412228
 H        -6.4041159593       -6.1691560892        1.9142117350
 H        -7.5724496961       -5.4746907457        0.8176216773
 H        -6.6535540323       -4.6604122535        2.1006945295
 H        -7.1040899310       -4.2462593325       -1.1841706947
 H        -5.4602280825       -4.2129913022       -1.7775223735
 H        -6.2742585254       -5.7069748223       -1.8905122330
 H        -1.9729964340       -7.7706637707        0.8446370893
 H        -1.9833718259       -5.9159215267        0.5834023929
 H         1.5625014057       -4.0556902139        3.7997856194
 H         0.7900097920       -2.7747604598        3.0005361327
 H         0.9513137062       -7.9475206749        3.6405280455
 H        -0.2570816356       -7.0926733017        4.5822427135
 H         1.2273731929       -6.3271810808        4.3447137435
 H         0.4006808531       -6.2314264160        0.6441134605
 H         1.7921853260       -6.6006472503        1.5696278835
 H         0.6780011293       -7.9100116455        1.2529343531
 H         0.1278778109       -3.1406419348        5.6196229990
 H        -0.9058855312       -4.2918419584        5.0004519799
 H         0.8534351246        1.4211251781        4.1876718783
 H         2.0530208668        0.0850214235        4.0557089298
 H        -2.2187764206        1.2200634888        4.2591621540
 H        -3.0189066746       -0.2837272885        4.8872404896
 H        -2.5900137166       -0.0000409822        3.1003138208
 H        -1.2424904522       -0.4939564638        6.6874606237
 H         0.2545064731       -1.0997665131        6.1413382878
 H        -0.0416964177        0.7088517992        6.0706234427
 H         1.8312380019        0.7784860886        1.4963421800
 H         1.5535948381        2.4129899719        2.2354026421
 H         6.0122113050       -1.0625133439        2.4919020127
 H         5.9780294686       -1.7158424353        0.9128666388
 H         6.7708855355       -0.1355408218        1.3516421764
 H         3.9966332007        3.3465742747        0.3349280372
 H         2.7659035789        2.1748056426        0.1909241181
 H         4.3052323180        1.8712365942       -0.6526249192
 H         6.5335441715        2.0694589292        1.2999062827
 H         5.5929401252        3.2884523093        2.1063615446
 H         6.1445675587        1.6222000984        2.9043438482
 Na       -1.8222119487       -2.3606688426        1.1532371792
