155

 C        -1.0873333289        5.7670693866        1.2663429772
 C         0.2735441854        6.2621199529        1.6859093207
 C         0.7206786366        7.5296718800        0.7680515262
 C         0.8322928341        6.9547118106       -0.6450737022
 C         2.2230675368        6.5720157099       -1.1781451175
 C        -0.3397576324        8.6832183538        0.9242756693
 C         2.0830904109        8.0761553219        1.3258097024
 O         1.0307353995        5.9115204060        2.5821358479
 O        -0.1752215561        6.8341732303       -1.3498758027
 C         2.1660259161        6.1069966646       -2.6626728657
 C         1.1184178571        5.0034708300       -2.8978870374
 C         0.4032798446        4.8925408015       -4.3649346026
 C         0.2910933239        3.4262941921       -4.7735783998
 C         1.5491083879        2.6685282370       -5.2390051192
 O         0.9180137555        4.2005311282       -2.0204431960
 O        -0.7469398299        2.7768201974       -4.5873765999
 C        -1.0964617899        5.4204081256       -4.2941652240
 C         1.0591814325        5.8461731236       -5.4400371972
 C         1.3285299608        1.0603267823       -5.3599188342
 C         2.6710619010        0.3836915315       -4.8595284800
 C         2.7130699801       -1.3045793727       -4.7650433805
 C         1.1633596675       -1.7753179455       -4.5581041453
 C         0.4298824276       -1.4821976097       -3.1568116852
 C         3.2676489963       -1.9410191733       -6.0639957304
 C         3.5512591127       -1.6637462404       -3.5222605215
 O         3.7034041707        0.9715087572       -4.5870260995
 O         0.4802973223       -2.2357343781       -5.4086492652
 C        -1.1446818543       -1.5057542064       -3.3327312264
 C        -1.8942148241       -1.5727269214       -1.9888791963
 C        -3.0661618423       -0.5169269655       -1.8825608690
 C        -3.8863156985       -0.7541279995       -0.5634295898
 C        -5.0811252106       -1.7543630708       -0.6886824331
 O        -1.4131431847       -2.2310698388       -1.0672964121
 O        -3.5305530544       -0.4504342956        0.5443879938
 C        -2.3313718903        0.8232764634       -1.7232011270
 C        -4.0601564720       -0.6370727544       -3.0626134505
 C        -5.3898388158       -2.7041917018        0.5815251702
 C        -4.5935460627       -3.9501989792        0.3676970272
 C        -5.3695638305       -5.1691713066       -0.2815641135
 C        -4.1875946637       -6.2828467806       -0.4562283907
 C        -3.6208407552       -6.9406902504        0.8335321914
 C        -6.4549587783       -5.6109470552        0.8077300086
 C        -5.8435620919       -4.7966241530       -1.7019988514
 O        -3.3832592595       -4.0060497195        0.4478573068
 O        -3.8134385022       -6.5868644949       -1.6026888210
 C        -2.0426249820       -6.7832373295        0.8328091237
 C        -1.5671122536       -6.8033496992        2.3014253458
 C        -0.0601790731       -6.3415999829        2.6165505247
 C        -0.0208283228       -4.7356069773        2.6905450726
 C         0.4975323704       -4.0555326251        3.9448024043
 O        -2.2656454844       -7.1842272151        3.1666681641
 O        -0.5998324683       -4.1108549721        1.8106248294
 C         0.4782999170       -7.1493791079        3.8468348946
 C         0.7823168128       -6.6940867539        1.2967589318
 C        -0.6528817523       -3.5587085791        4.8624081002
 C        -1.4239639168       -2.3908583660        4.2342992118
 C        -0.9144962156       -0.8103274479        4.5490709197
 C         0.0344128161       -0.3154038806        3.4727212216
 C         1.0507629849        0.7627700011        3.7448393073
 C        -2.2846749753        0.1614677336        4.4385808866
 C        -0.2706942729       -0.7763643580        6.0011631049
 O        -2.4032389868       -2.5172849243        3.5712336657
 O        -0.1101475215       -0.7098151239        2.3231155859
 C         1.8623790175        1.3715452192        2.6099231643
 C         3.3864205421        1.7430741079        2.9251127307
 C         4.2604889405        1.8029126007        1.6123065030
 C         4.3277830079        0.2298676618        1.1547714006
 C         5.4716307881       -0.5825438074        1.7683135956
 O         3.7967440102        1.7987307714        4.0727788748
 O         3.4040287703       -0.2049183012        0.5009157330
 C         3.6297370044        2.6322732966        0.5257406473
 C         5.5880405592        2.4392444389        2.0644458290
 H        -1.4875851373        6.3405708809        0.4856396334
 H        -0.9040716002        4.7737609399        0.8278722096
 H        -1.6648959878        5.6881824298        2.0657976773
 H         2.8731945332        7.4302043352       -1.0025891147
 H         2.5798053645        5.7722175119       -0.4618568164
 H        -1.1877907435        8.3582309207        1.5183372260
 H        -0.8161052950        8.9518340395        0.0493306711
 H         0.0342652999        9.5081593377        1.4844548997
 H         2.7962160386        7.2858005873        1.3378354311
 H         2.4821213933        9.0537818404        0.8663990564
 H         1.8653913937        8.2700195591        2.3272285248
 H         2.1001563378        6.9513489988       -3.3706833990
 H         3.0857431498        5.5677031067       -2.9800637376
 H         1.9419540806        3.0021314527       -6.1903643643
 H         2.3193641381        2.9711545443       -4.4940415901
 H        -1.5013009149        5.4083186044       -5.3094110534
 H        -1.2616822797        6.5100888259       -4.0117880949
 H        -1.6724797903        4.7282361146       -3.6870817543
 H         0.7162219216        5.6709783625       -6.4412964564
 H         0.8268833532        6.8574644104       -5.1792187653
 H         2.1490990128        5.8186059319       -5.4127204456
 H         1.0486643963        0.9140817024       -6.3558272174
 H         0.4182657934        0.8566600319       -4.7215725425
 H         0.6577136057       -2.3124239432       -2.5169325981
 H         0.8640524963       -0.5737800714       -2.7213477304
 H         4.1166642440       -1.4105149981       -6.4773757961
 H         2.4726393115       -1.8944170077       -6.8229939070
 H         3.6150172853       -2.9780542857       -6.0051567351
 H         3.8245841982       -2.7167220785       -3.5325899903
 H         4.5152459539       -1.1048982710       -3.5342115016
 H         3.1161033989       -1.3255106642       -2.6277746103
 H        -1.4789224094       -0.6152416195       -3.8897690731
 H        -1.3816796039       -2.3753863008       -3.9855409899
 H        -6.0115620167       -1.0907378396       -0.8986681225
 H        -4.9879722231       -2.3639033727       -1.5123616355
 H        -2.7532208751        1.7589458270       -2.1629913687
 H        -1.3020366745        0.7538257650       -2.0791374269
 H        -2.2774433490        1.0594357635       -0.7303221528
 H        -4.9406055471        0.0094956923       -2.9520317123
 H        -3.6756392527       -0.2153036229       -3.9866002308
 H        -4.3674484729       -1.6222252339       -3.2253097824
 H        -6.4288557259       -2.8636953993        0.5514059695
 H        -5.0597510820       -2.1692517792        1.5055561361
 H        -4.0738426757       -6.5484907090        1.7530121431
 H        -3.8794134166       -7.9816895761        0.7556839726
 H        -5.8823395875       -6.1395450731        1.5905050763
 H        -7.1932640481       -6.2664789544        0.2975067187
 H        -7.0705636076       -4.8097239498        1.3057816127
 H        -6.5136039794       -3.9762716502       -1.6543968067
 H        -4.9858024238       -4.5294276957       -2.3121563208
 H        -6.3831551854       -5.5941329524       -2.0873170670
 H        -1.4350730229       -7.4550213532        0.2827115967
 H        -1.9243789411       -5.7140759259        0.4371293950
 H         1.1999828577       -4.7202717517        4.4583754397
 H         0.9452478529       -3.0474868967        3.6748911146
 H        -0.2230777172       -8.0425721250        3.7761209479
 H         0.2946141979       -6.7769091637        4.8300238696
 H         1.5384898067       -7.5317070511        3.8330600874
 H         0.5527968103       -6.2175984290        0.3880450539
 H         1.8480361932       -6.5183939329        1.5882411667
 H         0.6534531320       -7.7612080027        1.1007929857
 H        -0.2955260140       -3.3948711616        5.8450309579
 H        -1.3601156487       -4.4018383459        4.9835487864
 H         0.4930977323        1.6382877114        4.1217816517
 H         1.6494307974        0.3662412760        4.5662208305
 H        -1.9801166516        1.1758789582        4.4085866865
 H        -2.8762428182       -0.0197379935        5.3007044131
 H        -2.8188935181       -0.0846814718        3.5957093142
 H        -0.7770887021       -1.4523339208        6.6002917316
 H         0.8179584897       -0.9996561477        5.9961600452
 H        -0.3291592412        0.3017826050        6.4027990879
 H         2.0294852489        0.6274588793        1.8590153769
 H         1.1935205498        2.0986095154        2.1725936575
 H         5.5958703609       -0.1306578621        2.7600336796
 H         5.1823488073       -1.6649443871        1.8532105359
 H         6.4850569193       -0.4767307225        1.3763014944
 H         2.6352399357        3.0405881453        0.8570978218
 H         3.4454343996        2.1007315269       -0.3710338028
 H         4.1752730721        3.5319707033        0.2666764957
 H         6.2556571328        2.4560279007        1.2360912791
 H         5.4243739244        3.4939024787        2.3675014609
 H         6.0603957648        2.0155562375        3.0309898719
 Na       -1.8067267408       -2.1119191081        1.2105327341
