155

 C         9.0390482612       -6.8372041368        4.1918268669
 C         8.7360513352       -5.3825882767        4.0533574139
 C         7.6069286127       -4.8944364488        3.0765634475
 C         6.1611306761       -4.8419475956        3.7948453811
 C         5.4766695469       -3.4132099556        4.0344362635
 C         7.8269198543       -3.4227220138        2.5491905652
 C         7.4419811166       -5.8905414407        1.9344894701
 O         9.2130810221       -4.4829527058        4.7644408509
 O         5.7645910121       -5.8331325943        4.3577099495
 C         4.2508521033       -3.6728810263        4.8900073592
 C         2.9379586588       -2.8992158598        4.5161914057
 C         1.6171642154       -3.5193872992        5.1058355090
 C         0.3711305809       -2.4212244107        5.1898146538
 C         0.0619601398       -1.5971454487        3.8268105585
 O         2.8808371805       -1.8528375686        3.9385738450
 O        -0.2068179698       -2.1426284692        6.1429841853
 C         1.0768739713       -4.4994872630        3.9976746969
 C         1.9190489760       -4.0349376775        6.6139502157
 C        -0.8272535756       -0.2466460788        4.0961369563
 C        -0.8283509634        0.6597437826        2.8262159332
 C        -0.9145121436        2.2373098777        3.0615911389
 C         0.3385905519        2.7927127214        2.3544680217
 C         1.3844682254        3.4102126627        3.1796199560
 C        -2.3022594378        2.8097673753        2.6346859909
 C        -0.8135978445        2.5056403509        4.5852923910
 O        -0.7526836560       -0.0173407692        1.7395842976
 O         0.3846976282        2.6302821868        1.1447038900
 C         2.4207034954        3.9529773263        2.3403168362
 C         3.8399480358        3.8070759358        2.9008006099
 C         5.0712288374        4.2474100923        2.0166201348
 C         4.7663267698        3.7169415789        0.5105283741
 C         5.2075959024        2.3288850146       -0.0218336393
 O         3.9759716807        3.3176998915        4.0237071183
 O         4.2874102511        4.4447008199       -0.3185390920
 C         5.1190259245        5.8773384269        2.1408456016
 C         6.3454003004        3.6445423973        2.5777224753
 C         4.5290516809        1.7055382031       -1.2027617046
 C         3.0724524430        1.2019041621       -1.2463883546
 C         2.4852717231        0.7332498077       -2.5737619545
 C         1.0217936928        1.3519942472       -2.7375080581
 C         0.7517587144        2.8662941474       -2.7365975299
 C         3.2120150275        0.9398559815       -3.8868116941
 C         2.5023586838       -0.7916875753       -2.4895324208
 O         2.2331998163        1.2713621552       -0.3670444912
 O         0.0680021966        0.6255474452       -2.8306630475
 C        -0.5696428730        3.2657346647       -3.2768614402
 C        -1.7791544657        2.8733108056       -2.2847040748
 C        -3.0704996487        2.1578343259       -2.7553878521
 C        -3.1917396525        0.7798239871       -1.9950059643
 C        -4.4282940935       -0.0622982709       -2.4230917091
 O        -1.7467137614        3.1903366703       -1.1126660593
 O        -2.3935545011        0.4150091438       -1.1744300521
 C        -4.2317141184        3.0392766946       -2.4174117239
 C        -3.0383910069        1.9649823653       -4.2957075725
 C        -4.9808078562       -1.2054038630       -1.3525454962
 C        -6.0063806951       -2.0832873439       -2.1774141489
 C        -7.5732863980       -1.9504063938       -2.0635013967
 C        -7.8716848557       -0.7928597243       -3.0316595638
 C        -8.8347865574       -1.1364363571       -4.2045883848
 C        -8.1736003484       -3.3729963857       -2.4498969172
 C        -8.0041518379       -1.4737870992       -0.5807174652
 O        -5.5946465065       -2.7749146113       -3.0471153750
 O        -7.4389171337        0.3616006906       -3.0222103955
 C        -8.9739287587       -0.0560705666       -5.3376798371
 C        -8.2214332891       -0.4859983651       -6.6006492155
 C        -6.9731811729        0.3666385069       -7.0377286617
 C        -7.6193022975        1.8487569780       -6.9394646733
 C        -8.7188354028        2.0767490441       -8.0172430265
 O        -8.4680008003       -1.4612991621       -7.2886655302
 O        -7.3219892773        2.7316953652       -6.1120483721
 C        -5.8228445604        0.0243653415       -6.1507572786
 C        -6.7282627573        0.0740431466       -8.5490750876
 H         8.0974274755       -7.5175883341        4.2563604065
 H         9.6164941970       -7.1598149782        3.3653863380
 H         9.6696836621       -6.9471454886        5.0476252293
 H         6.3187054268       -2.9100128749        4.5752540460
 H         5.4073691936       -2.8358211217        3.0597519123
 H         8.7368170736       -3.4120266922        1.9506006531
 H         7.9715041000       -2.6293380651        3.1896971526
 H         7.0642596692       -3.1736013453        1.7975417895
 H         7.4038074340       -6.9221806316        2.2262923332
 H         6.5306795762       -5.6931086918        1.3390834294
 H         8.1857299520       -5.8383174434        1.0780898202
 H         3.9658467096       -4.6640307602        4.8983774262
 H         4.5563097256       -3.5303582484        5.9574028005
 H         0.9699927504       -1.2715870294        3.4200468190
 H        -0.4742170371       -2.2317254514        3.0932273607
 H         1.6735065665       -5.3683462493        3.8680854438
 H         1.1569987017       -3.9095832690        3.0336597599
 H         0.0095541528       -4.7339554269        4.0939473815
 H         2.0090124206       -3.1116722454        7.2142368896
 H         1.1016630792       -4.7332923763        6.9052013853
 H         2.8590029212       -4.6150364489        6.6350655815
 H        -0.5511323407        0.3759877998        4.9313485044
 H        -1.8710819782       -0.5594136775        4.3327523416
 H         0.9566146541        4.2166733870        3.8568197882
 H         1.8379693182        2.6976627357        3.8768553778
 H        -2.2546625620        3.8044633735        3.0947904956
 H        -3.1161792638        2.3276999589        2.9751959132
 H        -2.4672110829        2.8493590607        1.5527312797
 H        -1.6166512374        2.1158201474        5.2126035825
 H         0.1909937187        2.2218559810        4.9265535272
 H        -0.8853079367        3.5645252014        4.6323351276
 H         2.4348846732        3.4556191402        1.3784632235
 H         2.1467157265        4.9748175946        2.0944363438
 H         6.2355159567        2.4306392884       -0.3183551882
 H         5.2563620523        1.5400204568        0.7125054212
 H         4.7363591349        6.2973671208        3.0763875799
 H         4.4544238060        6.1675005269        1.3123251710
 H         6.1871232153        6.2333231808        2.0401552003
 H         7.0818406482        3.7576395936        1.7413458312
 H         6.9047984174        4.0877697242        3.4128909908
 H         6.3440952901        2.6094347193        2.7577192090
 H         5.0880337096        0.8914500097       -1.6562755725
 H         4.5810283966        2.4015217365       -2.0353791588
 H         0.9016736172        3.1214545837       -1.6728236062
 H         1.6004807717        3.3621094260       -3.3086012879
 H         4.0595455379        0.2606537560       -3.9997997192
 H         3.5425845879        1.9632078744       -4.2584222298
 H         2.5855784136        0.3596466153       -4.6304241469
 H         3.3469371529       -1.3154904863       -2.8357576277
 H         2.0575240287       -1.1770509153       -1.5657600970
 H         1.7379357036       -1.2002269110       -3.1519750700
 H        -0.5613789893        4.3747434922       -3.2423899644
 H        -0.7362578641        2.9648418639       -4.3102075632
 H        -5.2355951775        0.6703050159       -2.5634531359
 H        -4.3107668234       -0.4212626053       -3.4774938941
 H        -4.5209932041        3.0229586387       -1.4008185100
 H        -4.9939274991        2.8397956961       -3.2104077256
 H        -3.9822914201        4.0438339320       -2.6034297175
 H        -3.7338844444        1.2233992633       -4.6860229238
 H        -3.3507740645        2.9296590432       -4.8835012663
 H        -2.1307433762        1.9095448102       -4.8524828572
 H        -5.5172050423       -0.5234557525       -0.6523804568
 H        -4.1581532721       -1.7731370853       -0.9941097270
 H        -8.6012676170       -2.1721340658       -4.6126298908
 H        -9.8302821278       -1.2799569898       -3.7739486244
 H        -7.7910119658       -4.0714769857       -1.7591164186
 H        -7.7753795720       -3.6654926455       -3.3916040390
 H        -9.2331074866       -3.5187654796       -2.4214834377
 H        -9.0437031266       -1.6079967293       -0.6526212210
 H        -7.6131523301       -2.2757212545        0.0641915393
 H        -7.8488928424       -0.4588116658       -0.3595883639
 H       -10.0053229815        0.0039010488       -5.5320043438
 H        -8.6275738561        0.9209750433       -5.0154494281
 H        -8.1854448079        2.2313500866       -8.9198226226
 H        -9.3153546096        1.2102978781       -8.1729738315
 H        -9.3271634378        2.9131713969       -7.6743488181
 H        -5.8452600024       -1.0057940004       -5.7856741779
 H        -5.9188210261        0.6502894687       -5.2576378129
 H        -4.8205148836        0.1541157541       -6.5481984625
 H        -6.0494473146        0.8345915835       -8.9861160261
 H        -6.1185473307       -0.8761202548       -8.6114764367
 H        -7.6343066500        0.0526478247       -9.1053776797
 Na       -0.4223683545        1.0439681819       -0.3318708560
