155

 C        -3.6586975783        6.2928139650       -0.9955222377
 C        -2.6910287645        6.5872155661        0.1435839542
 C        -2.1617732784        8.1465669889        0.2748271822
 C        -1.1999279204        8.3071985174       -0.9453542098
 C         0.3127398959        8.2814026159       -0.7754247061
 C        -3.3616205924        9.0572733615        0.0043681578
 C        -1.5028112895        8.3084380656        1.7096439202
 O        -2.5835504265        5.8194809531        1.0980905326
 O        -1.6497545815        8.4075946146       -2.0800928213
 C         0.9945116702        7.8075676723       -2.0862501017
 C         0.8714556883        6.3335510849       -2.3011025334
 C         1.0752007381        5.8923804383       -3.9109780968
 C         1.3863601254        4.3954479145       -3.9941628610
 C         2.8351064906        4.0003067731       -3.6773402031
 O         0.7017816258        5.5145929742       -1.4138163673
 O         0.5259737273        3.5465762493       -4.2228155028
 C        -0.3920116052        6.2360598989       -4.5231699430
 C         2.0606536500        6.7587960095       -4.6166215995
 C         3.2226509758        2.5562207031       -3.8843826842
 C         3.4693619393        1.8407128698       -2.5715630172
 C         3.2182476060        0.2793219909       -2.6513544442
 C         1.6364777465        0.1056039243       -3.1248630905
 C         0.5647132593        0.6841036720       -2.1843914312
 C         4.1467713172       -0.4194577951       -3.6920732051
 C         3.4894854908       -0.2951240363       -1.2586134877
 O         3.8364281373        2.3456929980       -1.5343655343
 O         1.3533210734       -0.5527353262       -4.1246207662
 C        -0.8846416567        0.3176152289       -2.6780790583
 C        -1.7289103139       -0.5948247154       -1.7860652417
 C        -3.3596382632       -0.3223040076       -1.7832033442
 C        -3.9820430406       -1.6878611422       -1.2317201888
 C        -4.0164680677       -2.8457835607       -2.2765828346
 O        -1.2999514237       -1.4570954991       -1.0775142078
 O        -4.1513044735       -1.8714380586        0.0026432658
 C        -3.3112614523        0.7297512375       -0.5842583657
 C        -4.0799234994        0.3367195899       -2.9953154514
 C        -4.0942887536       -4.2556680323       -1.4856787055
 C        -2.7323996043       -5.0035092685       -1.5967323108
 C        -2.5620798219       -6.0918785554       -2.6854116343
 C        -0.9760062121       -6.5248183274       -2.6366409964
 C        -0.4714557117       -7.1281456813       -1.2888886358
 C        -3.4114152498       -7.4465919705       -2.2538444521
 C        -2.8682905802       -5.7044139047       -4.1364681008
 O        -1.8044692449       -4.5746276687       -0.9352460954
 O        -0.1995646450       -6.3140669147       -3.5420379803
 C         0.6648328119       -6.2890066404       -0.6954094825
 C         1.0027582532       -6.5127873201        0.7379234748
 C         1.7188632926       -5.4161186238        1.5730826017
 C         0.4385842502       -4.8842674044        2.3549525692
 C         0.0539898567       -5.3464018364        3.7215842415
 O         0.7241125948       -7.6087737414        1.2290430117
 O        -0.3331771375       -4.1237488722        1.8038919047
 C         2.7362321108       -6.1262328087        2.4383623104
 C         2.3118175781       -4.2086761921        0.6723709115
 C        -1.5149673102       -5.5733750092        3.9306878350
 C        -2.3465318731       -4.3675012547        3.4864310561
 C        -2.4906083929       -3.0921268926        4.4349097999
 C        -1.3325438804       -2.0445994090        3.9203002637
 C        -0.2468588322       -1.4285134883        4.8031973526
 C        -3.8808651082       -2.3915902144        4.0008799965
 C        -2.3171289597       -3.2534129042        5.9442740630
 O        -2.9239676518       -4.3373226592        2.3825918825
 O        -1.4558688998       -1.6540890992        2.8132909040
 C         0.4853303642       -0.2722816569        4.1252901682
 C         1.9300731759       -0.2312183018        4.5061260620
 C         2.8850782616        0.8477401772        3.8640468598
 C         3.3190344353       -0.0966517719        2.5844860300
 C         4.9348087949       -0.3673849315        2.4031365541
 O         2.4572180214       -1.0494144124        5.2309403634
 O         2.4103765465       -0.6106975144        1.9123903931
 C         2.2671881671        2.1057759053        3.2848932611
 C         4.0402485561        1.1578607597        4.8448767116
 H        -3.9457424866        5.2032739882       -1.0265012901
 H        -4.5337547805        6.8702177063       -0.6455087191
 H        -3.2736357973        6.5957325573       -2.0192935238
 H         0.6303281159        9.2921516615       -0.5435467126
 H         0.8145845949        7.6623374918        0.0165961913
 H        -2.9189511399       10.1360440394       -0.0044552612
 H        -4.2055815139        8.9204012132        0.7474885512
 H        -3.7783081401        8.8099057880       -0.9508828183
 H        -0.9542151690        7.3250357724        1.9368031919
 H        -0.8226610619        9.0999455679        1.6199526699
 H        -2.1772857878        8.5326409698        2.5508169295
 H         0.5254444593        8.2786053843       -2.9723499840
 H         1.9815817649        8.1736491139       -2.1608246217
 H         3.4689478931        4.7224409116       -4.2467198747
 H         3.0399862459        4.2470346167       -2.6126502155
 H        -0.2434971795        6.6716882204       -5.5107173311
 H        -0.9719267253        7.0322834443       -3.9710544582
 H        -0.8602542727        5.2830567749       -4.6478677276
 H         1.8443166040        6.6578403895       -5.7046989039
 H         1.8438076166        7.8385703991       -4.4665576102
 H         3.1085092229        6.4574694833       -4.6135896197
 H         4.0629827854        2.5028886075       -4.5619239135
 H         2.3841344539        2.0422109436       -4.4409629620
 H         0.8354245708        0.2727346576       -1.1871664101
 H         0.5965818090        1.7927137602       -2.1133559788
 H         5.1178979255       -0.3583156032       -3.1930717532
 H         4.1711989113        0.0841260231       -4.7065319419
 H         3.9518571514       -1.3931215004       -3.9870867198
 H         3.8627613486       -1.3676220608       -1.3997144755
 H         4.3243773965        0.2822750315       -0.7654565607
 H         2.6381937215       -0.1386611733       -0.5936887818
 H        -1.4092355193        1.1817965055       -3.1351818191
 H        -0.8459363901       -0.4035724051       -3.5465074814
 H        -4.7906274764       -2.7115182486       -2.9666310669
 H        -3.1350439398       -2.8968068611       -2.9696074067
 H        -4.2772597647        0.9443163404       -0.2807071378
 H        -2.6993978743        1.7276226321       -0.7810021808
 H        -2.9135904468        0.1612140709        0.2483710554
 H        -5.1699390492        0.2559087573       -2.9071082855
 H        -3.8273601596        1.3874358603       -3.1926349813
 H        -3.8558777003       -0.1050074798       -3.9527197038
 H        -4.9611173467       -4.9266577251       -1.6112746369
 H        -4.0333208702       -4.1348226197       -0.3866415077
 H        -1.3188048718       -7.2940608410       -0.5849485303
 H        -0.0493210942       -8.1729139439       -1.4259749887
 H        -3.0347823039       -8.3944739985       -2.4151729432
 H        -4.3516245670       -7.4121760056       -2.7854329971
 H        -3.5947542994       -7.3582312846       -1.1989097595
 H        -2.3660734349       -6.3163849933       -4.8333572100
 H        -3.9239436479       -5.9453412922       -4.3085974258
 H        -2.6412510883       -4.7091512221       -4.3715656125
 H         1.4597070614       -6.4154365772       -1.3592749810
 H         0.3145718196       -5.2557251382       -0.8576668550
 H         0.5005605799       -6.2874626895        4.0923170029
 H         0.4249790680       -4.5854529923        4.4250897092
 H         2.4521943338       -7.1663898840        2.6612844727
 H         2.9239828410       -5.6840029172        3.3786919592
 H         3.7264738286       -6.1256252648        1.9137945045
 H         1.4331464971       -3.8253355124        0.1814144727
 H         2.7946797179       -3.4817863928        1.2768508781
 H         2.9937450987       -4.7202646705        0.0077376512
 H        -1.7069789990       -5.9270865099        4.9348020627
 H        -1.9154526164       -6.4140543123        3.4010412413
 H        -0.7582748997       -1.1130771132        5.7279691121
 H         0.4363033778       -2.1874005733        5.0874647483
 H        -4.1547356568       -1.4164634234        4.4931457135
 H        -4.6500238243       -3.1745885758        4.0513162498
 H        -3.7553391716       -2.0190398628        2.9376309511
 H        -2.8638678405       -4.2485037224        6.2503420436
 H        -1.2612897876       -3.6036153297        6.0947087803
 H        -2.7499391815       -2.4541678384        6.4900534882
 H         0.4453099283       -0.5083989562        2.9948174314
 H        -0.0297475516        0.6670426849        4.2832649555
 H         5.3909771298        0.5697837297        2.1754055767
 H         5.4193821712       -0.7643720720        3.2864290789
 H         5.0812191558       -1.0360093158        1.5820099089
 H         2.2680315150        3.0868256484        3.8712638866
 H         1.2836422584        1.8402848089        2.9994617828
 H         2.7836220727        2.3249510219        2.3588209959
 H         4.9454024422        1.4797667178        4.3274441814
 H         3.7883825145        2.0142307341        5.5132592085
 H         4.1128800397        0.2608711983        5.4139839271
 Na       -2.0563748428       -2.6872599255        0.6804242914
