155

 C        -4.0205453272        6.2319272786       -1.2087921829
 C        -3.4051954212        6.6765738129        0.1596483163
 C        -2.8043161733        8.1079666967       -0.0014477958
 C        -1.5442238662        8.2041495282       -0.9661632666
 C        -0.1874506905        7.8500315865       -0.3509312528
 C        -3.8526944893        9.1008607415       -0.6169423509
 C        -2.4331875531        8.5528940883        1.4695741360
 O        -3.2894684698        5.9468963532        1.0996829778
 O        -1.7184938046        8.3736791509       -2.1560266931
 C         0.8895052429        7.7870751012       -1.4795317611
 C         1.3592098162        6.4083728695       -2.0400099737
 C         1.1140071978        6.0632993124       -3.6261094570
 C         1.6384428407        4.6045833090       -3.8882290149
 C         3.1730589756        4.4341242216       -3.9352065826
 O         1.9004378535        5.7128324486       -1.2568009589
 O         0.8626965474        3.6961958257       -4.0391095518
 C        -0.3788900389        6.1499067803       -4.0823542217
 C         1.9965793006        6.9480722122       -4.6081624809
 C         3.6520685844        2.9472280409       -3.7233977111
 C         3.2441481810        2.3787889710       -2.4115877052
 C         3.0710416581        0.8344230945       -2.2979206649
 C         1.6933189303        0.3861509270       -2.7106264080
 C         0.5255191420        0.7540495595       -1.7939449415
 C         4.0573932115        0.1368841306       -3.2236467838
 C         3.3803749838        0.4683256633       -0.8764282357
 O         3.1924056531        3.0731296518       -1.4159064554
 O         1.5294181881       -0.2153618074       -3.6925626330
 C        -0.8159409475        0.4022405724       -2.5515177095
 C        -1.7337708747       -0.5152428731       -1.6877772286
 C        -3.2620486859       -0.7271153393       -1.9647785973
 C        -3.8141440056       -2.1466540557       -1.5667990655
 C        -4.1597446618       -3.1588439582       -2.5977315544
 O        -1.2653641683       -1.0490431497       -0.7020575553
 O        -3.9637224792       -2.4373191820       -0.3556760624
 C        -3.8813301230        0.2702998022       -0.9318658182
 C        -3.7629613836       -0.3825670649       -3.4197849199
 C        -4.4013815392       -4.5855567346       -2.2270746961
 C        -2.9600547736       -5.1903260009       -2.0094045220
 C        -2.3454877254       -6.2645024346       -2.8496713812
 C        -0.7655401016       -6.3638759268       -2.5863066286
 C        -0.1491331498       -6.7975224743       -1.2622431842
 C        -2.9990050169       -7.7052049123       -2.5808170669
 C        -2.4263969307       -6.0026288932       -4.4067329321
 O        -2.2205998607       -4.5440065219       -1.2859502632
 O        -0.0563113532       -5.9300701151       -3.4452967211
 C         0.9447546512       -5.8200376050       -0.9200794907
 C         1.7078681769       -6.2757195537        0.3014264447
 C         2.0454235177       -5.1822919819        1.4904030069
 C         0.6921094815       -4.6332126249        2.1379486880
 C         0.2309743911       -4.9905535244        3.5566469265
 O         1.9916927576       -7.4246535851        0.4667187131
 O         0.0543598012       -3.8838674967        1.4002599467
 C         3.0380442745       -5.9905716869        2.3732140454
 C         2.8848172166       -3.9865929313        0.9063252353
 C        -1.2754478624       -5.5224177695        3.5850488713
 C        -2.4320065937       -4.5021716882        3.2352155212
 C        -2.6966471562       -3.2027861030        4.1221288301
 C        -1.5413532447       -2.1454245377        3.7735531643
 C        -0.7565811954       -1.5319604557        4.8858275568
 C        -4.0582939970       -2.4932585169        3.7604376294
 C        -2.8322977250       -3.5989022113        5.6511792968
 O        -3.1929400283       -4.6408172928        2.2453333404
 O        -1.3071817684       -1.8954063529        2.6242453375
 C         0.1488865046       -0.3778587137        4.2357622664
 C         1.7607845970       -0.5929762349        4.8480794508
 C         2.8023851139        0.4020362674        4.4428324031
 C         3.3294301142       -0.4297804836        3.1027687389
 C         4.6855770362       -1.0408312227        2.9596755317
 O         2.0260530428       -1.6110508056        5.3903629672
 O         2.5201670646       -0.5655202616        2.1791089675
 C         2.3365506491        1.8291018193        3.9781336348
 C         3.9860396926        0.4834688441        5.4900531649
 H        -3.4979719010        6.6841143557       -2.0549388183
 H        -3.8840158556        5.0670676109       -1.2854548218
 H        -5.1056240954        6.3480087427       -1.2070969028
 H         0.1162687755        8.6320528049        0.3316887777
 H        -0.2126615412        6.8466435527        0.1911832832
 H        -3.5970589125       10.1388131794       -0.5207476775
 H        -4.7374886730        9.0127173662       -0.0278446395
 H        -3.9239637975        9.0123998846       -1.7249107983
 H        -2.0068866535        7.7531529888        1.9589920902
 H        -1.6714357951        9.3632292580        1.3351383814
 H        -3.3538058021        8.9116721565        1.9262086331
 H         0.5394648904        8.4232857519       -2.2861174461
 H         1.7477575495        8.3031933106       -1.1517725271
 H         3.4471899124        4.7695461920       -4.9328437627
 H         3.5813391626        4.9959671801       -3.1707311061
 H        -0.6022728107        7.2029848714       -4.0347352408
 H        -1.1082010587        5.4859531479       -3.5434304733
 H        -0.3183040479        5.8613851364       -5.1090441697
 H         1.5930136619        6.8061747573       -5.6049502876
 H         1.9524018468        7.9519333597       -4.2831416322
 H         3.0254901843        6.7589272629       -4.4789598850
 H         4.7183313945        2.9232090722       -3.8212106507
 H         3.3335409831        2.2974999738       -4.5519791977
 H         0.5408589333        0.0683883479       -0.9441416954
 H         0.5353602080        1.8244365709       -1.5934434133
 H         5.0235340280        0.5691442832       -2.9755599352
 H         3.9494698321        0.2139164138       -4.2880346491
 H         4.1878771165       -0.8484012982       -2.8517316051
 H         4.4334913246        0.3090135485       -0.8173616258
 H         3.1353360057        1.3059504076       -0.2273311350
 H         2.9390567526       -0.4733999491       -0.5919016489
 H        -1.1761509566        1.2996401426       -3.0213979371
 H        -0.5316444042       -0.2163012787       -3.3925966453
 H        -5.1245737036       -2.7807713703       -3.1055540202
 H        -3.4276258055       -3.1350568723       -3.3948218890
 H        -4.9811210412        0.1370271058       -0.8060765121
 H        -3.6756036191        1.2491682903       -1.1628265753
 H        -3.3496382549        0.0622047565        0.0349072553
 H        -4.9015944073       -0.2687670586       -3.3700421623
 H        -3.4141141185        0.6020340127       -3.7737186653
 H        -3.5942102391       -1.1061088445       -4.1894299570
 H        -4.8428281580       -4.9912255257       -3.1041722562
 H        -4.9072679447       -4.7748260281       -1.2723712041
 H        -0.8086594504       -6.8378168987       -0.4094412525
 H         0.3149630764       -7.7358730213       -1.3702957007
 H        -3.7041882518       -7.8105331275       -1.6876299456
 H        -2.1306019180       -8.4527089317       -2.4859394234
 H        -3.6132710485       -8.0836703750       -3.3773170977
 H        -1.6351068573       -6.5026622316       -4.9905291722
 H        -3.4848785003       -6.1152467165       -4.6864198699
 H        -2.3676474895       -4.8965585089       -4.5395627833
 H         1.5049094006       -5.6756757766       -1.8354005539
 H         0.4897773524       -4.8232292133       -0.5711930937
 H         0.7690028959       -5.7330824760        4.1301024931
 H         0.2853291371       -4.1325017870        4.2212015478
 H         2.9133944019       -7.0186436023        2.2644113658
 H         2.9376924580       -5.7344730326        3.4332612396
 H         4.0727196928       -5.7332190067        2.0205604209
 H         2.2626329084       -3.6219418086        0.0519341854
 H         2.8907700890       -3.3507188536        1.7288404135
 H         3.9248357603       -4.2605426538        0.6177436974
 H        -1.6248526566       -5.7042829752        4.6426180368
 H        -1.3689860358       -6.3882459226        2.9040896369
 H        -1.5409205596       -1.0137120998        5.5018883989
 H        -0.1026531412       -2.1434249095        5.5515562702
 H        -4.4687072741       -1.9483104065        4.5348033720
 H        -4.7783661830       -3.2819959323        3.5458874348
 H        -4.0090067942       -2.0062459259        2.8487426406
 H        -3.6566114394       -4.2833059395        5.8044097545
 H        -1.9304665441       -4.0351004225        5.9735970501
 H        -2.9490451116       -2.7708090770        6.3625038353
 H         0.2975030573       -0.5035232616        3.1277185839
 H        -0.1942359601        0.5992821970        4.4018594792
 H         5.4205532441       -0.5055552961        3.5582257224
 H         4.5604707646       -2.1102188164        3.2439323366
 H         4.9916535788       -1.0034604893        1.9038272527
 H         2.2167687532        2.5394923304        4.7537010063
 H         1.3133842202        1.8175158142        3.4677303082
 H         2.9885186807        2.2890388437        3.1737205381
 H         5.0307109078        0.5154659602        5.1423154083
 H         3.6916927498        1.3641084464        6.0429143745
 H         3.9035988322       -0.2962151184        6.1948889624
 Na       -1.9001824587       -2.8742406341        0.6200989316
