155

 C        -4.2034169207        6.0477347360       -1.1999160407
 C        -3.6238284434        6.7616912398       -0.0221803808
 C        -2.9214422313        8.1425897755       -0.0780897999
 C        -1.6328326614        8.0902201635       -1.0497379228
 C        -0.2084626222        7.6961450775       -0.5330763308
 C        -3.9925952276        9.1148563460       -0.5413925465
 C        -2.4714161289        8.5798552253        1.4256628124
 O        -3.3550616207        6.0547872650        0.9632175112
 O        -1.8713657817        8.4282765292       -2.1766458894
 C         0.9179106465        7.8027532561       -1.6278680961
 C         1.4234660161        6.4899584315       -2.0671561604
 C         1.1638065103        6.1685564154       -3.6240484608
 C         1.7171013648        4.6985242983       -3.7810264132
 C         3.2272961870        4.4983565018       -3.8540099977
 O         1.8857723338        5.6626037352       -1.2811175308
 O         0.9675395661        3.7436561023       -3.8081266650
 C        -0.4033727325        6.2102438614       -3.7827631823
 C         1.9970678572        7.2323041805       -4.3628188657
 C         3.5139477043        2.9873055320       -3.7427713966
 C         3.2974274135        2.4256894982       -2.3667073284
 C         3.1572379752        0.8235476552       -2.1778138320
 C         1.6539059095        0.3724954763       -2.6703692600
 C         0.4073142804        0.7782802155       -1.7950226531
 C         4.2752436168        0.1719380896       -3.1253379239
 C         3.4080612673        0.4681474600       -0.7346387073
 O         2.8798130071        3.1000063960       -1.4645436197
 O         1.5078477940       -0.2586034693       -3.7441361430
 C        -1.0065698559        0.4847899912       -2.4021721342
 C        -1.7593343200       -0.5040383142       -1.5644612150
 C        -3.3352058069       -0.7174354396       -1.9867616899
 C        -3.8425725746       -2.1689321635       -1.7259166067
 C        -4.2447495979       -3.1340165371       -2.7795029482
 O        -1.2837122462       -1.1229523705       -0.6120355237
 O        -3.9700450438       -2.5358889927       -0.5872107389
 C        -4.0548741188        0.3196162495       -1.1148203269
 C        -3.5537846515       -0.2969655438       -3.4773554788
 C        -4.2198970710       -4.6480343597       -2.2267822290
 C        -2.7606087760       -5.1091975372       -2.1107525742
 C        -2.2646968084       -6.3579411053       -3.0183708920
 C        -0.6790576034       -6.2801951920       -2.6981925666
 C        -0.1654897011       -6.7113793192       -1.2974858328
 C        -2.8607999030       -7.6582095308       -2.5660221310
 C        -2.5545417596       -6.0481651289       -4.4384481603
 O        -2.0136357271       -4.6779884656       -1.2431523020
 O         0.0364798511       -5.7763543765       -3.5331012876
 C         0.9805216848       -5.6895129207       -0.8398904942
 C         1.8005734387       -6.2850976590        0.3686363286
 C         2.0940305919       -5.1737910333        1.5895521424
 C         0.7375101208       -4.6104109218        1.9677048423
 C         0.2280684549       -5.0094856076        3.3345202025
 O         2.2572721106       -7.3911464470        0.3771308959
 O         0.1103940952       -3.9418911945        1.1436948655
 C         2.9524643134       -5.7804984399        2.7216288109
 C         2.8351425409       -4.0205429720        0.9122884366
 C        -1.1788178734       -5.6430337257        3.4863478783
 C        -2.3355323290       -4.4935598335        3.0890638389
 C        -2.6366941943       -3.2179000899        4.1227670405
 C        -1.5985918176       -2.1080597711        3.7505357010
 C        -0.8210209632       -1.3641405581        4.8410783331
 C        -4.0551197368       -2.7340757520        3.6578146845
 C        -2.4481430855       -3.5887317854        5.5915765542
 O        -2.9949205359       -4.6618043739        2.1380631182
 O        -1.5018299683       -1.6435721713        2.6042393667
 C         0.1816357066       -0.3756580671        4.4676587792
 C         1.5493734430       -0.7616085167        4.9538801735
 C         2.7535349414        0.1436707172        4.4510670298
 C         3.2522489396       -0.4985062698        3.1555885596
 C         4.6920318180       -1.1409864890        3.1347778905
 O         1.8059324338       -1.6749207571        5.7812243191
 O         2.5724369157       -0.4561630254        2.1784223491
 C         2.3939532712        1.5570592619        4.0887814815
 C         3.7825082574        0.2084714593        5.7386982487
 H        -4.0769159787        6.6398341330       -2.0127904101
 H        -3.5871969092        5.2252033668       -1.3768060779
 H        -5.1847038216        5.5475316261       -1.0354208077
 H         0.1169149189        8.3199979789        0.3502763838
 H        -0.2995421511        6.6650920608       -0.2530502841
 H        -3.6639843964       10.1970649251       -0.4114977317
 H        -4.9350973093        8.9526884234        0.0988625604
 H        -4.1515279532        9.0668975345       -1.6055944631
 H        -1.7796752503        7.8121073905        1.9421431991
 H        -2.0915916715        9.5493041747        1.3838911268
 H        -3.4509557218        8.6029915104        1.8883736152
 H         0.5693399870        8.3331721994       -2.5132076210
 H         1.7353085384        8.4125496574       -1.1952455028
 H         3.5740393791        4.7384652649       -4.8648814446
 H         3.7697942017        5.0765577239       -3.0108767442
 H        -0.7641291837        7.1990952800       -4.1082985489
 H        -0.6286590678        5.9584489647       -2.7867140617
 H        -0.8097734881        5.3849223406       -4.3829704110
 H         2.3429670818        6.7928974475       -5.2537414647
 H         1.3545230837        8.0925533350       -4.5829127020
 H         2.7695479410        7.6398584368       -3.7156561623
 H         4.4373811685        2.8446935752       -4.3279494975
 H         2.7673167066        2.5314207952       -4.3998099943
 H         0.4728379313        0.2084062891       -0.8632691534
 H         0.4466230042        1.8705836167       -1.7503381897
 H         5.2653423253        0.6349607282       -3.0719587619
 H         3.9841935249        0.3320311258       -4.1947278325
 H         4.3767540283       -0.9007296409       -2.9699010822
 H         4.4631000574        0.1485301233       -0.4928268901
 H         3.0152398068        1.3301504728       -0.1920917113
 H         2.8904893365       -0.4641393080       -0.4409758553
 H        -1.5144354192        1.4627538093       -2.4562622284
 H        -0.9801202645        0.1621039948       -3.4658786811
 H        -5.2313737664       -2.9941254433       -3.0556272260
 H        -3.5801786154       -2.7940822153       -3.6480682012
 H        -4.9576403399        0.6495090945       -1.5581713140
 H        -3.4094024680        1.3134397354       -1.0295023625
 H        -4.2093600286       -0.0858737409       -0.1489879121
 H        -4.5234995491       -0.4335309831       -3.8760565847
 H        -3.2257115116        0.7492559661       -3.5328879894
 H        -2.8488026779       -0.7957900491       -4.2089005223
 H        -4.6501408941       -5.3500919068       -2.9705077701
 H        -4.7188509443       -4.4619382062       -1.2848605587
 H        -0.9142498756       -6.5264146532       -0.5079844818
 H         0.0602520138       -7.8388221078       -1.3414241405
 H        -2.6925672203       -7.7916078139       -1.5610763134
 H        -2.6179043750       -8.5038401591       -3.1494891515
 H        -3.9604564031       -7.5859849447       -2.5547550590
 H        -2.1012056035       -6.8914940121       -4.9020869880
 H        -3.5956368115       -5.8870839276       -4.6486016525
 H        -1.9949324215       -5.2472635514       -4.8148940892
 H         1.7195480610       -5.6110633719       -1.6474472091
 H         0.5575366921       -4.7515204273       -0.7056693569
 H         0.7332542296       -5.8130208203        3.8821526034
 H         0.4519807269       -4.1398258739        4.0005847220
 H         2.6656979648       -6.8770591201        2.8694536889
 H         2.8114359237       -5.2384207147        3.6390753721
 H         3.9783247606       -5.7086065833        2.4508973226
 H         2.0916148869       -3.4460238741        0.3854041397
 H         3.4048129580       -3.4255779877        1.6838539107
 H         3.5258510250       -4.5444463147        0.2862217412
 H        -1.3674820643       -6.0596254179        4.4291246628
 H        -1.1959501428       -6.3464615553        2.6884271966
 H        -1.5215904330       -0.9722069939        5.5389651319
 H        -0.2049284608       -2.1001826839        5.3464777269
 H        -4.1498948669       -1.6446998935        3.9239575091
 H        -4.9342028320       -3.2688987440        3.9608080151
 H        -4.0656932922       -2.9152750054        2.5495384039
 H        -3.1622095262       -4.4234672321        5.9089426951
 H        -1.3647641243       -3.8812475807        5.8119941915
 H        -2.6838658345       -2.8204410377        6.3162383227
 H         0.1830979001       -0.3219620612        3.3530782452
 H         0.2052197003        0.7176399572        4.8606111206
 H         5.4664266871       -0.5290179763        3.6327464988
 H         4.6331215269       -2.1261163885        3.6209982680
 H         5.0011957460       -1.2726046972        2.0863961476
 H         1.8733965408        2.1319798098        4.9287927793
 H         1.7240304159        1.6534781897        3.2974146963
 H         3.2630062166        2.0625039121        3.7587112985
 H         4.6017749968        0.8233024525        5.3139873383
 H         3.2720856450        0.7646778248        6.5690519042
 H         4.3419342563       -0.7117312475        6.0880196722
 Na       -1.8034294995       -2.9803361901        0.4715750534
