155

 C        -4.6094253399        6.2300345970       -1.5934219749
 C        -3.7573019142        6.7157626894       -0.2913446270
 C        -3.3342015868        8.2174297035       -0.1298473045
 C        -2.1033984491        8.2632336386       -1.0896810255
 C        -0.6944448692        7.9902856542       -0.4880257606
 C        -4.4510449961        9.1802983142       -0.4685801309
 C        -3.0270062464        8.5545508468        1.4039447203
 O        -3.5661712949        5.8488436544        0.5432773633
 O        -2.2531207991        8.5786976376       -2.2325200892
 C         0.3310506038        8.2772600735       -1.5110659716
 C         1.0613510477        6.8760312065       -1.9541811564
 C         1.0099619561        6.3300125640       -3.4094106670
 C         1.5320914999        4.8789362803       -3.4035523243
 C         3.0952094054        4.7019265675       -3.2076498427
 O         1.8210802130        6.4355481006       -1.1553470765
 O         0.8438921394        3.8930051453       -3.5696325195
 C        -0.4667243632        6.3607383323       -3.9698881521
 C         1.9552383730        7.3447397611       -4.2185395269
 C         3.4499886425        3.1654264003       -3.2073996638
 C         3.0813838934        2.4142697284       -1.9815121327
 C         3.0994718934        0.7644577396       -2.0308398670
 C         1.5669004147        0.3512970019       -2.5697061996
 C         0.4860979938        0.9856323654       -1.7093362605
 C         4.1177462316        0.0945373290       -3.0771197775
 C         3.3484914276        0.1300184666       -0.6129142816
 O         2.7436493107        2.9773567141       -0.9387878355
 O         1.3492946864       -0.4247405665       -3.4250810482
 C        -0.9802218369        0.7672180539       -2.2972986929
 C        -1.8911131520       -0.3603200359       -1.8958249536
 C        -3.4017235243       -0.3902201653       -2.5382445446
 C        -3.8736816707       -1.8896575541       -2.1385187970
 C        -3.3313679092       -3.1440362471       -2.9338300211
 O        -1.5245267249       -1.2092306023       -1.1475144490
 O        -4.5622522024       -2.0429884968       -1.1408642327
 C        -4.2547280571        0.6436458942       -1.8030023729
 C        -3.1469880517       -0.1049826490       -4.0041912930
 C        -3.4478357706       -4.4369261115       -2.0561018499
 C        -2.0479398140       -5.0380603362       -2.1302321932
 C        -1.6492399833       -6.3199891829       -3.0351380446
 C        -0.0357141901       -6.2125333576       -2.9967138914
 C         0.6866172131       -6.7048956584       -1.7791277309
 C        -2.3001188043       -7.5077592462       -2.2959197377
 C        -2.1801240450       -6.1307777757       -4.5056136370
 O        -1.1796233922       -4.6298039045       -1.3969356330
 O         0.5033269740       -5.8148321403       -4.0111481633
 C         1.6589657056       -5.7715400027       -1.1034334281
 C         2.0434938416       -6.1665585485        0.3307080410
 C         2.3676618401       -4.8710777347        1.2687971527
 C         0.9098746505       -4.5331339571        1.7734468183
 C         0.4171751734       -5.2712554990        3.1029220498
 O         1.8290398807       -7.2149871573        0.9101674377
 O         0.1165702494       -3.9194633530        1.0842783548
 C         3.3021186023       -5.2953812839        2.5132638758
 C         3.0813526156       -3.6616913088        0.5546006700
 C        -1.0316639869       -5.6982013554        3.1822527222
 C        -2.1235603700       -4.6728223038        2.8369336061
 C        -2.4570860910       -3.6383982655        3.9510946049
 C        -1.6473756248       -2.3347063358        3.4813491496
 C        -1.2476939188       -1.4210644298        4.6311123060
 C        -3.9621259766       -3.1819593179        3.8189102741
 C        -2.2128111841       -4.0672535078        5.3859124799
 O        -2.6543677804       -4.5891408508        1.7438711536
 O        -1.5714632789       -2.0250713629        2.3173011026
 C         0.0477433839       -0.5927693163        4.5145479306
 C         1.2648230826       -0.9951647976        5.4560809890
 C         2.5690015784       -0.3143394520        5.1440652723
 C         3.2725485767       -1.0062550226        3.8500411168
 C         4.5518658728       -1.8832561420        3.9364379169
 O         1.0758396436       -1.8483046074        6.2986398212
 O         2.7272396591       -0.8239975078        2.7711279972
 C         2.3453232297        1.2202072435        4.9107521827
 C         3.4621915273       -0.5355599682        6.3641040533
 H        -5.5729002632        5.7834164802       -1.1231909662
 H        -4.7354289019        6.8294391632       -2.5143232221
 H        -4.1551227379        5.3801696265       -1.8754524043
 H        -0.6491882840        8.7096549501        0.4343966466
 H        -0.6519997423        6.9708714486       -0.0181460518
 H        -4.2655063356       10.2274217247       -0.1294723724
 H        -5.3711971642        8.7854458370       -0.0918249679
 H        -4.7074919271        9.1732079627       -1.4939462225
 H        -2.0698592565        8.1739519092        1.7202396108
 H        -3.1557068967        9.6067679449        1.5460992731
 H        -3.8764787271        8.1406344888        1.9697347773
 H         0.0123399117        8.8189232646       -2.3808185431
 H         1.1505593194        8.7454170546       -1.0447136468
 H         3.6150597554        5.2313673674       -3.9647280076
 H         3.3720093743        5.2520521638       -2.3075852251
 H        -0.8746072190        7.3462335183       -3.7561883907
 H        -0.9584038710        5.6617034472       -3.2797084151
 H        -0.4678165821        6.1008905954       -5.0125195214
 H         2.5297676229        6.8130301385       -4.9701630148
 H         1.2419694459        8.0008509816       -4.7864430365
 H         2.7008541158        7.8528247531       -3.5680166101
 H         4.4765746127        3.0338021602       -3.4827114280
 H         2.8392151983        2.7295113389       -3.9682594803
 H         0.5414543953        0.6304500431       -0.6531685729
 H         0.5477010166        2.0862959837       -1.6919091527
 H         5.1880925358        0.2498948450       -2.8848249398
 H         3.8350138033        0.3399282417       -4.1548074307
 H         4.0032217348       -0.9452786877       -2.9930517635
 H         4.3920705478        0.2227291632       -0.3612223586
 H         2.8062142522        0.6644898575        0.1530146248
 H         2.9785032734       -0.8308517759       -0.6493438632
 H        -1.3893317956        1.7476289439       -2.1316942701
 H        -0.9140617812        0.6565140486       -3.3579359620
 H        -3.8990871213       -3.1313666320       -3.7998142361
 H        -2.3069712494       -2.7340585058       -3.2783860109
 H        -5.1904094523        0.7711220429       -2.3286593668
 H        -3.7004696235        1.5332539736       -1.7084263608
 H        -4.6347574465        0.2642441154       -0.7768205073
 H        -3.9788158852       -0.2783470831       -4.6511519304
 H        -2.9028073127        0.9683407352       -4.0934257535
 H        -2.3120369966       -0.7706153673       -4.2160183967
 H        -4.3742831990       -4.9599839618       -2.2257327891
 H        -3.7296891239       -4.0135694206       -1.1123630808
 H        -0.0347903378       -7.0186101663       -1.0313834181
 H         1.1884152050       -7.6399814334       -2.0701817637
 H        -3.3591179629       -7.7194346415       -2.6643831280
 H        -2.2775863509       -7.3016315773       -1.1510481107
 H        -1.7041083143       -8.3603506755       -2.3272915568
 H        -1.4033620014       -6.0866934723       -5.2812526532
 H        -2.5447407494       -7.1954946079       -4.6550627365
 H        -2.9540856423       -5.3899335286       -4.6280917222
 H         2.5431081936       -5.5994569430       -1.6460344214
 H         1.1616933527       -4.8048483470       -1.0805500062
 H         0.9648751663       -6.1716692402        3.4145782736
 H         0.5330393360       -4.4359155906        3.8410130568
 H         2.9958120857       -6.2834560525        2.8471828036
 H         3.2458946427       -4.6147625655        3.3115520275
 H         4.3600660668       -5.3363233626        2.1205350606
 H         2.3188079604       -3.1489440924       -0.0849857997
 H         3.5241367741       -2.9959924679        1.2342284709
 H         3.8756765130       -4.1140341851       -0.1047545541
 H        -1.4657817197       -6.2599029321        4.0054922424
 H        -1.1994082156       -6.4766092891        2.4455703654
 H        -2.1772463814       -0.8206030122        4.5510003019
 H        -1.3174071779       -1.8478884389        5.6646200135
 H        -4.0582797076       -2.1269205926        3.9272643938
 H        -4.6809511022       -3.6998374943        4.4798359771
 H        -4.2217261690       -3.3047645715        2.7944763571
 H        -2.5315810298       -5.1136854721        5.4685613195
 H        -1.2107886638       -4.1555400478        5.6729095776
 H        -2.6061248363       -3.4789139733        6.1750215500
 H         0.3496363033       -0.4910297403        3.4561013195
 H        -0.2799924152        0.4570531388        4.7727032205
 H         5.1013034712       -1.8525699977        4.8449979902
 H         4.1752427438       -2.8920572865        3.8946513269
 H         5.1690666378       -1.6221533460        3.1152356846
 H         1.5711618118        1.7724193507        5.4391290106
 H         2.1687147394        1.2678186915        3.8111655823
 H         3.2306883366        1.8591269562        5.1438909730
 H         4.3041609509       -1.2405313341        6.3618431628
 H         3.9372988157        0.4360460995        6.5884880250
 H         2.9575423396       -0.6957458856        7.2341055234
 Na       -1.9451281384       -3.2258032220        0.1375871217
