155

 C        -5.4211637877        6.8416131264       -2.3641184063
 C        -4.4979106755        6.7476881711       -1.2282684766
 C        -3.9809991791        8.0524079775       -0.4517742130
 C        -2.8161927155        8.8167288569       -1.2762001807
 C        -1.4088814286        9.1407805149       -0.5429815340
 C        -5.1943233497        8.9251554015       -0.2487400703
 C        -3.4022372917        7.4896626397        0.8128499214
 O        -4.1949310953        5.6071491512       -0.8897216948
 O        -2.9642301159        9.2256511675       -2.3701667215
 C        -0.1039778137        9.0001954235       -1.3904885213
 C         0.0131844196        7.4807893585       -1.6110690670
 C         0.5785034574        6.8825155067       -3.0722086538
 C         1.2341879448        5.4687246613       -2.7622815893
 C         2.7096314818        5.3961229600       -2.2781941174
 O        -0.3973387807        6.7726977516       -0.6977432996
 O         0.5696632276        4.4733318567       -2.7637460652
 C        -0.6956808736        6.5569693718       -3.8816054687
 C         1.5066833200        7.9586924483       -3.7325370041
 C         3.1457063948        3.9890635877       -2.2804593178
 C         2.6555495351        3.0404505577       -1.1143509491
 C         2.7900177232        1.4869081424       -1.5266592744
 C         1.2881771298        1.2811842218       -2.0344233538
 C         0.1646306686        1.4215200753       -1.0013508952
 C         3.7549354753        1.1977539129       -2.6422484146
 C         3.1805777568        0.7282386269       -0.1793604684
 O         2.1552566010        3.4176435645       -0.0418047218
 O         1.1095567010        1.0377993942       -3.1854623404
 C        -1.3243220629        1.2859681965       -1.6188489819
 C        -1.9033546853       -0.1114521976       -1.5685396369
 C        -3.1125979009       -0.5446388978       -2.4855936581
 C        -3.1905161422       -2.1394219338       -2.3555238972
 C        -2.8639981524       -2.9646118464       -3.5687958630
 O        -1.2745897395       -0.9193374599       -0.9056892286
 O        -3.5412605673       -2.6817008464       -1.3031173770
 C        -4.3570845208        0.1605576738       -1.8761243674
 C        -3.0154659732       -0.1189776421       -3.9354491484
 C        -2.7160194424       -4.4915440742       -3.4036946847
 C        -1.2595388972       -4.8998948550       -2.9619264943
 C        -0.5780796644       -6.1133840434       -3.6383660478
 C         0.9491178604       -6.1666298255       -3.1047230964
 C         1.1759827593       -6.2240130729       -1.5413194291
 C        -1.1450917134       -7.4975771496       -3.2468842593
 C        -0.6658430631       -5.7463217464       -5.1176053486
 O        -0.5825751370       -4.1494328598       -2.2842564951
 O         1.9159637684       -6.1271080972       -3.8117401669
 C         2.6661144714       -6.3081038792       -1.1755326013
 C         2.7995312954       -6.5944489014        0.3298039830
 C         3.2113445475       -5.3518654343        1.2579212730
 C         1.8699143800       -4.6113870340        1.5568962304
 C         1.2148985330       -4.9000330010        2.8360616716
 O         2.4354309633       -7.6557478280        0.8208834236
 O         1.4260889529       -3.8787097858        0.7064932318
 C         3.9758445288       -5.9436546558        2.4557868884
 C         4.1038583933       -4.3325570578        0.4572955592
 C        -0.2189745924       -5.4956150066        2.6950019732
 C        -1.3534840944       -4.8200232991        2.0375875605
 C        -2.4282278099       -4.0073177783        2.7397645990
 C        -1.7578448774       -2.4539556883        2.9486997583
 C        -2.0371630895       -1.5155830692        4.1137187806
 C        -3.6765048385       -3.8677572959        1.8480864077
 C        -2.7689962880       -4.5341381863        4.1828862480
 O        -1.3489960899       -4.8669797034        0.7908158951
 O        -0.9710938187       -2.1340942138        2.0657269249
 C        -0.6551509699       -0.8846944575        4.5371032170
 C         0.2051051012       -1.8676952285        5.3076969980
 C         1.4249570228       -1.3555510108        6.1172959791
 C         2.7183960741       -2.2385863997        5.7364341344
 C         4.1400571478       -1.5588633229        5.8329914751
 O        -0.1194687200       -3.0877750919        5.4121619193
 O         2.6115587580       -3.3841000629        5.3835508475
 C         1.6118212646        0.1438621514        6.2400502424
 C         1.1866512652       -1.8527822683        7.6376457425
 H        -6.4266117299        7.0164946617       -1.9407865554
 H        -5.1599480565        7.6613716429       -3.0093215622
 H        -5.4037163552        5.7957980444       -2.9228160130
 H        -1.4100207208       10.2041099328       -0.3733010153
 H        -1.4080471455        8.6146202757        0.4208363006
 H        -4.9493482161        9.6883394161        0.4709066822
 H        -6.1154572850        8.4495313342        0.1606846728
 H        -5.3954700976        9.5057333435       -1.0806816454
 H        -2.3094160571        7.1393424805        0.7351645004
 H        -3.3774398097        8.1617321691        1.6536606710
 H        -3.9232371219        6.6029395231        1.0251901672
 H        -0.2864172900        9.5627093704       -2.2998970789
 H         0.7625078323        9.3176004551       -0.8621510462
 H         3.3262179460        5.8999664497       -3.0068886783
 H         2.7800276596        5.8165725763       -1.2959887568
 H        -1.3629279358        7.3599303416       -4.2695647116
 H        -1.3347044020        5.8654132690       -3.3609375570
 H        -0.3106118384        5.9984802410       -4.7808526735
 H         0.8054279600        8.7745782572       -3.9378994755
 H         2.3860316622        8.2805583327       -3.2589132185
 H         1.8733119429        7.5946419695       -4.6945460064
 H         4.1808163866        3.9534907615       -2.2759928070
 H         2.8141747072        3.5158134005       -3.2220685162
 H         0.4573778049        0.6671453644       -0.2325154563
 H         0.1249665882        2.3202770373       -0.3736628773
 H         4.6067375412        1.8475956181       -2.5228678151
 H         3.3510734438        1.4878422849       -3.5652531184
 H         4.2392862989        0.1673734511       -2.5680020585
 H         4.1770438784        1.1330797721        0.2015467756
 H         2.4213922849        0.7703591299        0.6297080808
 H         3.2104678661       -0.3789226028       -0.3648939782
 H        -1.9247334031        2.0256892402       -1.0486039208
 H        -1.1812655775        1.6752382115       -2.5868864933
 H        -3.6580947279       -2.8588764283       -4.4192974632
 H        -2.0783180630       -2.5970868509       -4.1382495361
 H        -5.2743211232       -0.2012286779       -2.2382324817
 H        -4.3028501761        1.2452885881       -1.9391739478
 H        -4.2414602451        0.0799408820       -0.7082390707
 H        -3.7050305391       -0.6861011594       -4.5948105532
 H        -3.1617159969        0.9329508414       -4.0970287120
 H        -2.0037841316       -0.3834167416       -4.2906015153
 H        -3.0242297736       -4.9292779133       -4.3381599514
 H        -3.3053295631       -4.8364879918       -2.5330744414
 H         0.7990986728       -5.3461564379       -1.0730743413
 H         0.6055914773       -7.1148683772       -1.2792619720
 H        -0.7485813749       -7.9196589013       -2.3304668617
 H        -0.8742911052       -8.1461845516       -4.1253743065
 H        -2.2504399914       -7.4326924982       -3.2654052817
 H        -0.6743989026       -4.6884240501       -5.3565355558
 H         0.1805948037       -6.1391748978       -5.6382708603
 H        -1.5447001160       -6.1860481068       -5.5112609846
 H         3.2046173292       -7.1538926235       -1.7678408542
 H         3.0826114974       -5.3519297725       -1.3620455369
 H         1.7654170994       -5.6535639853        3.4987965378
 H         1.0465378004       -4.0199643463        3.5250773679
 H         3.3602307011       -6.7481238813        2.8912925235
 H         4.2559830369       -5.3027248190        3.3336646947
 H         4.7916150856       -6.4330928252        2.0445313356
 H         3.5880728768       -3.6590721034       -0.1852284455
 H         4.5394092232       -3.6506036559        1.2751712077
 H         4.8936778816       -4.6526248353       -0.1669402225
 H        -0.6147676681       -5.9587608147        3.5862552730
 H        -0.0081728663       -6.3850891523        2.1466145570
 H        -2.7428973136       -0.7082084359        3.7897043968
 H        -2.4368276653       -2.1625194665        4.8962082464
 H        -4.6331303172       -3.4228971500        2.2756614403
 H        -4.0462441182       -4.8913452780        1.6611856588
 H        -3.3159949704       -3.3501217915        0.9176147548
 H        -3.4056790764       -5.4642259999        4.1886289110
 H        -1.8050125016       -4.6976906460        4.6479537017
 H        -3.3539762260       -3.8567369540        4.6793899822
 H        -0.0696683083       -0.5211693598        3.5931625636
 H        -0.8426811669       -0.0469356376        5.2870833886
 H         4.8149577782       -2.3230321600        6.2275514853
 H         4.4913000286       -1.4837932216        4.8126731768
 H         4.2654187425       -0.6218089047        6.3753608942
 H         0.7618227814        0.5073770688        6.9024542934
 H         1.6226862769        0.4538932999        5.2474434020
 H         2.5056496048        0.4735691899        6.6877906261
 H         2.0410384519       -1.5358142217        8.2080590369
 H         0.2101782893       -1.5443323083        7.9943919587
 H         1.1315250937       -2.9006020539        7.7114115039
 Na       -1.0483900554       -3.0662177550       -0.2927136577
