155

 C        -5.9164921301        7.5913215250       -2.7769128974
 C        -4.9566636043        6.9130737314       -1.7668596232
 C        -4.5880553029        7.7041405467       -0.4259020604
 C        -3.4248159589        8.7522790141       -0.9617776993
 C        -2.0573018892        9.1051504882       -0.3103500332
 C        -5.7543000986        8.6304965575        0.0863948272
 C        -4.0679584888        6.8030492345        0.6396758236
 O        -4.4366991895        5.8358726148       -1.8836318504
 O        -3.6992973200        9.3619345606       -2.0262068001
 C        -0.9528995660        9.1049873085       -1.4136609394
 C        -0.3342384285        7.6227401115       -1.5670850338
 C         0.2858495250        7.2228960295       -2.9992173702
 C         1.0579430683        5.9428280996       -2.9335596715
 C         2.1658048914        5.8297189499       -1.7920329940
 O        -0.0863335673        7.0008240403       -0.5976804981
 O         0.9252822291        5.0003778501       -3.6999305541
 C        -0.8037157883        7.0706010944       -4.0686243525
 C         1.3541456786        8.3560140305       -3.4567192432
 C         2.8757583476        4.5019186230       -1.8610703609
 C         2.4230325661        3.6471584327       -0.7115147656
 C         2.4976670922        2.0944993734       -0.9735361818
 C         1.2486240417        1.9699336164       -1.9044117515
 C        -0.0350749732        2.5129332388       -1.2562433626
 C         3.6975038830        1.7048026669       -1.8617202009
 C         2.4743570611        1.2488187689        0.2517319568
 O         1.9821962343        4.0786719238        0.3100967302
 O         1.2543391740        1.4982643422       -3.0154976599
 C        -1.2458580358        1.6754126949       -1.8482504156
 C        -1.3722502503        0.1433753918       -1.5321250812
 C        -2.6901637778       -0.5392283539       -2.1499199382
 C        -2.2606873191       -2.1216039401       -2.4616147702
 C        -1.8536764826       -2.4068108536       -3.8896972793
 O        -0.5995690880       -0.5687075149       -0.8896442872
 O        -2.2026582314       -2.8946094715       -1.5645053238
 C        -3.7463546086       -0.5411070904       -1.0743122822
 C        -3.2523086815        0.1766936738       -3.4502482268
 C        -1.5786676196       -3.9444192052       -4.1856981362
 C        -0.2628978811       -4.4590724931       -3.3889933365
 C         0.4142684424       -5.9230542798       -3.9083441169
 C         1.6389275192       -6.2491925236       -2.9265582661
 C         1.2324474356       -6.8074608760       -1.5249313453
 C        -0.7501900302       -6.9661647545       -4.0072270767
 C         0.8311528663       -5.6583333029       -5.3753495700
 O         0.2129712613       -3.7771239686       -2.4950212132
 O         2.7779823768       -5.9867121438       -3.2149019956
 C         2.3348005423       -7.6490815270       -0.8940625891
 C         2.6392157629       -7.1940290943        0.5608657232
 C         3.3137015559       -5.7394091222        0.7783808984
 C         2.1894365064       -4.6981445199        1.0060101811
 C         1.3135621062       -4.9032115213        2.2861428590
 O         2.4898381896       -7.9351046353        1.5247868944
 O         1.8954206909       -3.9160337939        0.1423665392
 C         4.1499757829       -5.8771713012        2.0736585949
 C         4.2773499000       -5.3178883674       -0.4101675933
 C         0.1347292540       -5.9565356885        2.0408324063
 C        -1.0224234554       -5.1471907724        1.4680380781
 C        -2.0278062214       -4.5481376764        2.5002381356
 C        -1.7882636620       -3.0253324453        2.6952630515
 C        -2.4053522236       -2.3896020353        3.9902638307
 C        -3.4602379460       -4.6807521914        1.8479056809
 C        -2.1122234676       -5.5052968304        3.8253609866
 O        -1.0671663030       -4.9494654197        0.2732434450
 O        -1.3133030715       -2.3202230231        1.8524790304
 C        -1.3531314521       -1.7193542329        4.8201560920
 C        -0.6772705867       -2.5894366668        5.9161453556
 C         0.4981622176       -1.8983154561        6.8242087167
 C         1.8073922549       -2.1862702923        6.1394260368
 C         3.1827640858       -2.3196623863        6.9407006786
 O        -0.8548398238       -3.7363641348        6.1460748587
 O         1.7925879370       -2.2816810324        4.9281303146
 C         0.4717295573       -0.2691425970        7.0018012410
 C         0.3987349943       -2.4495426559        8.2343191043
 H        -6.8222853856        7.8151050394       -2.3077304180
 H        -5.3748330756        8.4222492045       -3.1251675876
 H        -6.1590446886        6.8955537801       -3.5541284369
 H        -2.2235293105       10.1326086429        0.2268153743
 H        -1.6329322606        8.4988995450        0.5030102474
 H        -5.4904801634        8.9665858533        1.0977842908
 H        -6.6090045816        7.9909168919        0.2085300383
 H        -6.0053033563        9.5448213919       -0.5554731860
 H        -3.2074421230        6.4077455592        0.2402400600
 H        -3.7650960279        7.2256797564        1.6000585042
 H        -4.8740762156        6.0257808615        0.8118064812
 H        -1.3595610341        9.4451226126       -2.3721197888
 H        -0.1382019810        9.7787539064       -1.0829988497
 H         2.8587138048        6.7007692683       -1.9900786527
 H         1.7561367924        6.1248880870       -0.8195268429
 H        -1.2359616940        8.0562946129       -4.2864379536
 H        -1.6355013379        6.4216459528       -3.7962445855
 H        -0.5150005591        6.7330972253       -5.0578301772
 H         0.7211470826        9.1785889670       -3.7820786899
 H         1.8778076841        8.6984511753       -2.5496482500
 H         2.1029779695        8.0002349619       -4.1979634434
 H         3.9631216176        4.6108106460       -1.7082510643
 H         2.7584556848        3.9146911032       -2.8286649958
 H        -0.1208383321        2.4303521611       -0.1810177360
 H        -0.0970523962        3.5554025299       -1.6655471963
 H         4.5132975089        1.2965402926       -1.2597553922
 H         4.0115878989        2.5950902475       -2.4792516974
 H         3.3424729058        0.9801074854       -2.5359374193
 H         3.5066348122        1.0360833175        0.6369074839
 H         1.9588030944        1.7633918191        1.0953678010
 H         1.9313551658        0.3281836522        0.0920960399
 H        -2.1510071394        2.1850342427       -1.3793929435
 H        -1.3364705721        1.7237416150       -2.9487229656
 H        -2.5271094037       -2.1829177651       -4.7341921801
 H        -0.9298504399       -1.9276217213       -4.0160856971
 H        -4.6707261263       -1.0772118944       -1.4792352015
 H        -3.9467410521        0.4726264989       -0.7412096156
 H        -3.5596311589       -1.1712393855       -0.3132853285
 H        -4.0433314311       -0.3553620185       -3.9166998056
 H        -3.7064109634        1.1616969277       -3.3144853090
 H        -2.4952107477        0.2612076536       -4.2410131304
 H        -1.4438063314       -3.9853428064       -5.3054810451
 H        -2.5129980682       -4.5215466232       -4.1446458585
 H         0.8805453615       -5.8740734276       -0.9684836534
 H         0.2986788879       -7.3300449267       -1.5834647145
 H        -1.0840278613       -7.3278852881       -2.9903553335
 H        -0.5524034478       -7.8978671562       -4.5894445273
 H        -1.6247997305       -6.6029165716       -4.4889462380
 H         1.6698818446       -4.9768666626       -5.3685457290
 H         1.2514738746       -6.5007507916       -5.9761128613
 H         0.1434393224       -5.0569347114       -5.9337109263
 H         1.9943323838       -8.6228033229       -0.7779191737
 H         3.2956823131       -7.7371718567       -1.3837404783
 H         1.8505591823       -5.3772786865        3.1157541840
 H         1.0406345436       -3.8794050122        2.6140355542
 H         3.6526871979       -6.5159928254        2.8440556932
 H         4.3772021697       -4.9427838579        2.4668603302
 H         5.0826503939       -6.4700861253        1.9157219759
 H         3.9752586084       -5.6609529480       -1.4287789612
 H         4.4430330958       -4.2583268509       -0.4570513294
 H         5.3069221417       -5.7375415018       -0.3183245259
 H        -0.2253382866       -6.4651220279        2.8928669970
 H         0.4710918312       -6.7102591963        1.2891311804
 H        -3.1880742206       -1.6706679755        3.7869151087
 H        -2.9311631043       -3.0633260219        4.6628037047
 H        -4.2180457197       -4.4460068311        2.5529927609
 H        -3.6044565766       -5.7009046502        1.4402905465
 H        -3.5510691325       -4.0261188904        0.9941199647
 H        -2.7459408185       -6.3836120925        3.6371897834
 H        -1.1234236138       -5.6117544108        4.2439163918
 H        -2.6111628226       -4.9276784644        4.6618743679
 H        -0.6137700250       -1.2256054524        4.3210731588
 H        -1.8114264219       -0.9690807469        5.4387424210
 H         3.0679731480       -2.3462989729        7.9984647539
 H         3.6288454741       -3.2049018605        6.5576985176
 H         3.8427898897       -1.5065170348        6.7055530817
 H        -0.2599981592       -0.0469397066        7.7689937357
 H         0.1940353171        0.4352202857        6.1567535943
 H         1.4190211837        0.0206184071        7.5350089089
 H         1.1048548519       -1.9534994619        8.8421463336
 H        -0.5500527569       -2.1851020538        8.7040505209
 H         0.4912368779       -3.5362276668        8.2204893913
 Na       -0.2381893874       -2.8797207788       -0.4259750523
