155

 C         7.6885150832       -7.6863629850        3.4805616449
 C         7.9304843267       -6.1850921749        3.4088765056
 C         7.0893968959       -5.1641924175        2.5273320780
 C         5.7753323330       -5.0995292773        3.2432723217
 C         5.0488122705       -3.8164997237        3.7967574236
 C         7.7370146951       -3.7752839655        2.5147229365
 C         7.0430461044       -5.7393456452        1.1021738542
 O         8.8326346435       -5.6932457157        4.0690798547
 O         5.2713243616       -6.1846141795        3.4695354873
 C         4.0674999595       -4.1511199991        4.9473046522
 C         2.9340860852       -3.1589403382        4.9160792479
 C         1.5159255176       -3.7389723047        5.2516777987
 C         0.5957090317       -2.5290655026        5.3176763962
 C         0.4001923743       -1.7596465455        4.0418526935
 O         3.1482613357       -1.9826818331        4.6419195965
 O         0.0320669453       -2.1301663079        6.3560838752
 C         1.0928109848       -4.6485401457        4.0799139785
 C         1.5439575765       -4.4712071530        6.5973705648
 C         0.2723004395       -0.2290326460        4.2791266633
 C        -0.3496517905        0.7482519612        3.1342036166
 C        -0.3602191268        2.3661360846        3.4530841430
 C         0.7392719975        2.9405049238        2.6532256721
 C         1.7873823135        3.8857963193        3.4205582850
 C        -1.7346968391        2.7621781045        2.8547970155
 C        -0.4199929872        2.7226295992        4.9707399201
 O        -0.5286760215        0.3508332087        2.0223672384
 O         0.7572606254        2.8995376355        1.4679834572
 C         2.7480319043        4.5559014697        2.3566105221
 C         4.2230602535        4.2087331638        2.5844343284
 C         5.2008179526        4.5551788060        1.4094432314
 C         4.6921731231        3.7291317213        0.1594164629
 C         4.4879424776        2.1771950538        0.2750160447
 O         4.6369548244        3.6322634015        3.5486378311
 O         4.3929412955        4.3311678863       -0.8903276280
 C         5.0818263959        6.0918452906        1.1391979843
 C         6.6948951645        4.2232637388        1.8631671292
 C         4.3328043806        1.6645061701       -1.1693686474
 C         2.7600859635        1.3653846296       -1.3463482251
 C         2.4038997285        0.7281450617       -2.7941769868
 C         1.0341182107        1.3401150114       -3.1854504807
 C         1.0743023736        2.6942895177       -3.9272531942
 C         3.5102334268        1.0514727182       -3.9343260098
 C         2.1236562858       -0.8026070962       -2.7823513454
 O         1.9430274515        1.5769720625       -0.4665088708
 O         0.0017793761        0.7552775114       -2.8186663538
 C        -0.4369869582        3.1045006518       -4.1030648057
 C        -1.3907602886        2.7900125077       -2.9236007393
 C        -2.7189340869        1.9311204125       -3.1633348560
 C        -2.7173790362        0.6879023774       -2.2247063958
 C        -3.5331784520       -0.5819862205       -2.5257693133
 O        -1.1973124693        3.2101243047       -1.7961433260
 O        -2.1092402010        0.6740775771       -1.1992178518
 C        -4.0173360517        2.7559493614       -2.8146348026
 C        -2.7456932323        1.6093460220       -4.6479088827
 C        -4.4005564839       -0.9004145817       -1.3921333305
 C        -5.4867403996       -1.9265382560       -1.8069167569
 C        -6.9535760007       -1.6849624899       -1.4042970586
 C        -7.6056625045       -0.5305204568       -2.3798745875
 C        -9.0174706070       -0.7052907842       -3.0067998298
 C        -7.7922848658       -3.0284904247       -1.5850254028
 C        -7.0487361088       -1.2340106148        0.1322663115
 O        -5.2287390363       -2.8460959994       -2.5732230950
 O        -7.0777987000        0.5361933126       -2.3210586342
 C        -9.2034693729        0.3150443616       -4.1297690544
 C        -8.9082562238       -0.2861931582       -5.5117313548
 C        -7.9655091320        0.4696762499       -6.5325579464
 C        -8.6111065860        1.7366533143       -7.1522526755
 C       -10.1485008965        1.5762871446       -7.2855659700
 O        -9.3543940850       -1.3705108413       -5.8845780385
 O        -8.0492609168        2.6662281653       -7.7272316761
 C        -6.6335286853        0.6986404241       -5.8154090483
 C        -7.8067708355       -0.4335284021       -7.8165517500
 H         6.7777795170       -8.1389208851        3.3445410250
 H         8.4063208247       -8.1129422371        2.6905268619
 H         8.0467886401       -8.0997637654        4.4462305324
 H         5.7749537284       -3.1469310081        4.1855051304
 H         4.3994406500       -3.2012408455        2.9819601334
 H         8.7256896325       -3.6322100660        2.2086214331
 H         7.7106306628       -3.2887481537        3.5325784832
 H         7.1566581912       -3.0715266724        1.8830904289
 H         6.4559477817       -6.6465616437        0.9304779050
 H         6.4600714345       -5.1617180814        0.4498126491
 H         8.0023164144       -5.7679374706        0.6106155938
 H         3.5909504662       -5.1079398418        4.9257210812
 H         4.6058749588       -4.0058748613        5.8536703204
 H         1.2235282611       -2.0804441069        3.3701451428
 H        -0.5226058475       -2.0506449109        3.4747256025
 H         1.2744317063       -5.6953239246        4.3533343492
 H         1.6343400457       -4.2758216281        3.2298583393
 H         0.0357333254       -4.6110638725        3.8925904418
 H         1.1971547778       -3.7851416420        7.4162209429
 H         0.7595805301       -5.2092460959        6.7353055389
 H         2.5445864953       -4.8898460989        6.7574901848
 H         1.2639047727        0.1548074649        4.5716646861
 H        -0.2573404874        0.0282807485        5.1461112670
 H         1.2229559251        4.6974781012        3.8986538560
 H         2.2963937628        3.3709310723        4.2274816154
 H        -2.0246872426        3.7788829919        3.1905928485
 H        -2.6085834589        2.0424087635        3.1932948027
 H        -1.6350882293        2.8023842052        1.7667974314
 H        -1.3330182977        2.2840291416        5.4371711904
 H         0.3986310041        2.3234669074        5.4700488493
 H        -0.4642402059        3.7746753147        5.2055934653
 H         2.3855658737        4.3388060372        1.3184006252
 H         2.6820913295        5.6584276281        2.5193222916
 H         5.3107753061        1.7315238821        0.8029712578
 H         3.5189925539        1.9997434773        0.9248306421
 H         5.4366786341        6.6609971449        2.0319468816
 H         4.1409273605        6.5944701043        1.0020423003
 H         5.6434279052        6.2970693689        0.2502904004
 H         7.5047624771        4.0624858594        1.1321752987
 H         7.0909277404        4.8761261699        2.6191404426
 H         6.5970991463        3.2512290827        2.3946088154
 H         4.9870429465        0.7905227260       -1.2720437181
 H         4.4858986240        2.5579657713       -1.8707810250
 H         1.6085245055        3.3752190072       -3.3077175292
 H         1.5542400035        2.6100549887       -4.9138469135
 H         4.4953520570        0.6246380114       -3.7192253259
 H         3.5173784089        2.0937838034       -4.0511422058
 H         3.1500000603        0.7084960943       -4.8169828103
 H         3.0074897672       -1.3800052429       -2.5540226873
 H         1.5343437116       -1.2041539257       -1.9777841592
 H         1.7569058655       -1.1032619813       -3.7856653886
 H        -0.5541452903        4.1928955356       -4.3524078031
 H        -0.7884978460        2.6146426693       -4.9949397958
 H        -4.1325943786       -0.4341021560       -3.4150244023
 H        -2.8963272978       -1.4586332724       -2.8173048581
 H        -3.8995784812        2.9706501627       -1.7371429372
 H        -4.8539422793        2.1040256679       -2.7619490164
 H        -4.0768293299        3.6204502652       -3.4484083282
 H        -3.6106366294        0.9559653745       -4.8577723093
 H        -2.9341542705        2.4810306542       -5.1309282288
 H        -1.9485946323        0.9330295397       -5.0819150946
 H        -4.7682265116       -0.0210925334       -0.9773054465
 H        -3.7882900987       -1.1661171779       -0.5208109043
 H        -9.1085119423       -1.7219826998       -3.3952396790
 H        -9.7433316218       -0.5839713167       -2.2572879607
 H        -7.2373513007       -3.8191114272       -1.0528718623
 H        -8.0513127411       -3.1854456636       -2.6181982862
 H        -8.6761581701       -2.8560054086       -1.0015917565
 H        -8.0120837819       -1.3925673176        0.5669984555
 H        -6.2820432628       -1.7865548111        0.6676904439
 H        -6.7788023032       -0.1504649123        0.2336802729
 H       -10.2352927596        0.6894744574       -4.1566928022
 H        -8.5797671459        1.2453807564       -3.9307300804
 H       -10.5209032696        0.5320887921       -7.0906410990
 H       -10.5941073138        2.1640778141       -6.4925982120
 H       -10.5529065762        1.7868676469       -8.2727173745
 H        -6.1138680707       -0.2485089240       -5.6734266955
 H        -6.7633869811        1.1165112103       -4.8240013461
 H        -6.0242034336        1.4134466077       -6.3025738396
 H        -7.5140050952        0.1493753658       -8.7269444368
 H        -7.1592671802       -1.2906384080       -7.7449372200
 H        -8.8598101253       -0.6766852669       -8.0535157015
 Na       -0.3630395823        1.6794884474       -0.1330035785
