155

 C        -7.6151500328        5.8411356624       -3.2529354330
 C        -6.7233088234        5.7208861957       -1.9920708696
 C        -6.3441095014        7.1983506379       -1.2761404257
 C        -4.7636165154        7.3258511222       -1.3646875777
 C        -3.9618442877        7.0719331019       -0.0833009880
 C        -6.8715852998        8.3678227230       -1.9919330742
 C        -6.8189887735        7.1499029274        0.1677798504
 O        -6.4098051738        4.7208358289       -1.4331206202
 O        -4.1985803756        7.7298610683       -2.4023627635
 C        -2.5937407095        7.7042434685       -0.1058737099
 C        -1.5129266216        6.5975471476       -0.3290386882
 C        -0.3304218069        7.0217449519       -1.2561163747
 C         0.6065422652        5.8280214099       -1.5491511764
 C         2.0430291119        6.2168789443       -1.9706847810
 O        -1.5836605162        5.5556525377        0.2403840284
 O         0.2551635825        4.6865222062       -1.2705974477
 C        -0.8787678675        7.6309728356       -2.5663786807
 C         0.3611679270        8.1819566634       -0.4983730557
 C         2.9124886174        5.0100534948       -2.0253208634
 C         3.3690806772        4.4283562598       -0.7601178621
 C         3.8113315941        2.8851303139       -0.6278146982
 C         2.6198317243        2.0222970977       -0.9950520469
 C         1.5927204238        1.8882117902        0.1328656638
 C         5.0178265831        2.6373409389       -1.5380167046
 C         4.3716113176        2.6595911385        0.8166333547
 O         3.3639793219        5.1258009320        0.2902079060
 O         2.3790079110        1.6522404417       -2.1457410912
 C         0.1832919651        1.7470575509       -0.5040872586
 C        -0.2351356920        0.3470510972       -0.7783197131
 C        -1.5480836664       -0.0223768878       -1.7599897517
 C        -1.3772623794       -1.5103228973       -2.2438242184
 C        -0.5378045427       -1.6435137836       -3.5757918733
 O         0.3878296827       -0.5645975849       -0.2644682981
 O        -1.7887791135       -2.4991041543       -1.6911224849
 C        -2.8241739712        0.1365181732       -0.9558870174
 C        -1.4995373165        0.9293816811       -2.9999292384
 C        -0.1723451144       -3.0707823866       -4.0094826139
 C         1.2392682447       -3.4519462436       -3.3668318862
 C         2.3206415772       -4.1199526313       -4.1999909012
 C         3.7375033327       -4.2524538118       -3.5108314657
 C         4.2410045161       -5.6432423852       -2.9005212462
 C         1.8133541078       -5.6022350066       -4.5257282685
 C         2.5436207024       -3.3938001216       -5.5658934762
 O         1.4193622235       -3.3203200956       -2.1636819424
 O         4.5203902065       -3.3643550987       -3.4848109779
 C         4.8871803395       -5.4115665765       -1.5301479041
 C         3.9170272531       -5.9323173361       -0.3911434283
 C         4.0698397266       -5.1442912866        1.0842287569
 C         2.4840175870       -4.7424299624        1.3020529239
 C         1.5202735243       -5.6971919352        2.1083136347
 O         3.2980231288       -6.9623000640       -0.5266606345
 O         2.1296972810       -3.6192876883        0.9613675384
 C         4.5182210915       -6.1661567229        2.0404223421
 C         4.8819031582       -3.8595151483        1.0102467832
 C         0.5846927819       -6.6714120671        1.3449123500
 C        -0.4732073007       -5.8005024032        0.5668260343
 C        -1.9937159847       -5.5964908232        0.9992422626
 C        -2.1238028460       -4.1824500299        1.7667516379
 C        -3.4698787445       -3.9742930271        2.4650122621
 C        -2.7568048955       -5.4611970478       -0.3279248468
 C        -2.5307088316       -6.8253617745        1.7008698705
 O        -0.0937424743       -5.1029135392       -0.3600571004
 O        -1.3013364637       -3.3075680198        1.6512447071
 C        -3.4727490181       -3.0271789597        3.6812100566
 C        -2.4823135524       -3.5922156093        4.8870942026
 C        -2.5893908433       -3.0070489811        6.3239824241
 C        -1.2567647521       -2.0984096523        6.5826988942
 C         0.1354211708       -2.7085647911        6.5980590850
 O        -1.6471586511       -4.4751320396        4.6749932069
 O        -1.3714812753       -0.9230151350        6.7804170395
 C        -3.7975352531       -2.0741623042        6.5245558976
 C        -2.6352898792       -4.2285929823        7.2819590990
 H        -8.3980509308        6.4442205598       -2.8334098370
 H        -7.1047302624        6.3182172316       -4.0659262616
 H        -7.8732929095        4.7719711690       -3.6876073021
 H        -4.6419231683        7.5007425223        0.6853730401
 H        -3.8123528097        5.9805152885       -0.1557560759
 H        -6.6391131537        9.3399373898       -1.5143000597
 H        -7.9953708095        8.3471975700       -1.9565836184
 H        -6.6006111268        8.4397609399       -3.0574863726
 H        -6.3983490297        6.4748177264        0.8464251910
 H        -6.5699750764        8.1863718098        0.6349294673
 H        -7.9047195106        6.9958945258        0.2489347021
 H        -2.4047661483        8.4403524758       -0.8773157671
 H        -2.3732448318        8.2094465939        0.8067477686
 H         2.1745099771        6.7344397960       -2.8811465932
 H         2.4384489107        6.8869646071       -1.1755571834
 H        -1.6308233174        8.4309215090       -2.3491318617
 H        -1.3062813074        6.8024239265       -3.0735756775
 H        -0.0977620278        8.0678131756       -3.1986767385
 H         0.1306113803        9.1459787582       -0.9827265487
 H         0.0958195632        8.0387612244        0.5334490608
 H         1.4388684803        8.0863547153       -0.5649682376
 H         3.7484960107        5.3305095146       -2.5720569578
 H         2.2814366650        4.2919452681       -2.6058523660
 H         1.7453353960        1.0625033148        0.8171484113
 H         1.7569260608        2.8832542666        0.6925118083
 H         5.7211757799        3.4606603889       -1.4503755311
 H         4.7516724631        2.5932842642       -2.6017811393
 H         5.4653390255        1.5958964842       -1.3055940159
 H         5.4649926263        2.6670292399        0.7001114999
 H         3.9398435513        3.3432951500        1.5558181040
 H         3.9920750152        1.6918877236        1.1916285420
 H        -0.5831784189        2.4016207534       -0.0465095439
 H         0.1470565429        2.2086643222       -1.5003736585
 H        -0.9302238937       -1.0173407833       -4.4612013972
 H         0.4059345790       -1.2436750449       -3.2410649049
 H        -3.6461077412        0.0474205359       -1.6557582412
 H        -2.8856981710        1.0850050687       -0.5940342273
 H        -2.9588927728       -0.6455317132       -0.1450493183
 H        -2.3533948209        0.6213536247       -3.6517271598
 H        -1.7897164449        1.9373174756       -2.6596412096
 H        -0.5754582946        1.0861943847       -3.5539836485
 H        -0.1485719787       -3.0510359499       -5.0864148378
 H        -1.0570785733       -3.6211668933       -3.8118863639
 H         3.5698234738       -6.5262838869       -2.7276454890
 H         4.9199720561       -5.9335349192       -3.6833867682
 H         1.5576273565       -6.1281138912       -3.6548843894
 H         2.6100397332       -6.1981680909       -5.0386723479
 H         0.9879950150       -5.6614685812       -5.2079062675
 H         3.2538521999       -2.5273559396       -5.4383717626
 H         2.9874056829       -4.1021028995       -6.3558721911
 H         1.6333518228       -3.0332742527       -5.9864402634
 H         5.7323800617       -6.1017931968       -1.2975502395
 H         5.3117604778       -4.3473124331       -1.4721229067
 H         2.1697122440       -6.3547332942        2.7036840695
 H         0.7527625552       -5.1306721122        2.7062329263
 H         3.9608098775       -7.0938699154        1.9416596788
 H         4.4384366981       -5.7360091734        3.0765100922
 H         5.5483220226       -6.3552290517        1.9886682590
 H         4.7135127902       -3.4025134925        0.0648947888
 H         4.7091190791       -3.0377562562        1.7469777947
 H         5.8976957842       -4.1173875811        1.1101363801
 H         0.1152698893       -7.3278655309        2.0702919771
 H         1.0699613324       -7.1760656213        0.5687495231
 H        -4.1085399505       -3.5478767989        1.6921524754
 H        -3.8482141711       -4.8679806792        2.8311979136
 H        -3.8198942096       -5.7019817796       -0.2461681055
 H        -2.2955563334       -6.1900053114       -1.0304146425
 H        -2.6030496379       -4.4724447529       -0.6967361147
 H        -2.2361498544       -7.7128969754        1.0571432307
 H        -2.3763663337       -6.9252976639        2.7696509746
 H        -3.5552062329       -6.7336817992        1.6635340048
 H        -2.8906046581       -2.2045552987        3.3564098895
 H        -4.4019043518       -2.7040494763        4.0450379084
 H         0.7635949185       -2.2400443165        5.8558265078
 H         0.5371860433       -2.4859298337        7.5667196854
 H         0.1909563318       -3.7418874093        6.3680560068
 H        -4.6943156285       -2.7062747892        6.3666664825
 H        -3.7159310389       -1.2476547587        5.8886640827
 H        -3.7369077285       -1.6149301446        7.4703661122
 H        -2.8806546014       -4.0630420182        8.3652391206
 H        -3.3731062511       -4.9665009664        6.8112851242
 H        -1.6177432014       -4.6990687912        7.2308149775
 Na        0.0849227302       -2.8807504872       -0.0015837686
