155

 C        -6.4020889552        3.1722230583       -2.8454938175
 C        -6.6904065459        4.1266076014       -1.5270073795
 C        -6.3262735794        5.6606307844       -1.6307917513
 C        -4.7857773833        5.8606666682       -1.0870229118
 C        -4.1671829865        4.7466801349       -0.1136529002
 C        -6.3023565806        6.1270906256       -3.0988708651
 C        -7.2976674582        6.4905125651       -0.6955292675
 O        -6.9610946905        3.6560327871       -0.4844225000
 O        -4.2136359276        6.8800881928       -1.4531988510
 C        -2.8400377334        5.2999301845        0.5473066389
 C        -1.8131445709        5.8862515554       -0.5706566990
 C        -0.9433705565        7.1706647741       -0.3296354092
 C         0.4415384392        6.4709594463       -0.1530000002
 C         1.7401098642        7.1174265833       -0.6076191716
 O        -1.5470376629        5.1582236728       -1.4752075825
 O         0.4936086193        5.4330333648        0.4672027650
 C        -0.9190745147        7.9803268759       -1.6528823034
 C        -1.1546903722        7.9647712696        0.9752615279
 C         2.7556655294        6.0974581601       -1.1791052780
 C         3.1776396285        4.9761968300       -0.1655404328
 C         3.5865004917        3.5567678227       -0.6970376192
 C         2.4737185133        2.4990989777       -0.3237516210
 C         1.8345748063        2.3044765799        1.1102167829
 C         3.7460752117        3.5023020852       -2.2154155923
 C         4.8892402333        3.2776034751        0.0979912974
 O         3.3697135333        5.3099032034        0.9667068078
 O         1.9815167493        1.8662905524       -1.2302013392
 C         0.3964662041        1.8040056917        0.9780592982
 C         0.2014503118        0.5412576973        0.0478316126
 C        -1.0284937362        0.4983641688       -1.0059859927
 C        -0.8885303692       -0.7754294122       -1.7795118591
 C         0.0658951096       -0.7225275680       -3.0767729430
 O         0.8782711169       -0.4495351120        0.3238706232
 O        -1.4392676548       -1.8901756967       -1.5266619612
 C        -2.3418626165        0.5343933073       -0.0904863029
 C        -1.1309861608        1.7115184074       -1.8669629061
 C         0.4363160417       -2.1102915733       -3.6032435090
 C         1.8211827870       -2.3418859855       -3.0907789328
 C         3.0736574011       -2.3413520453       -4.0150695782
 C         4.3149338540       -2.5045581990       -3.0263573460
 C         4.5464302046       -3.8781582080       -2.2899568074
 C         3.0865539236       -3.5797779706       -4.9771310675
 C         3.2397396541       -1.0351872376       -4.7648046375
 O         1.9794016950       -2.4372954874       -1.8742247898
 O         4.8989069311       -1.5061764297       -2.8106741132
 C         4.6323620613       -3.5458729612       -0.7079323322
 C         4.7868865601       -4.8438251444        0.1148514936
 C         4.1242748954       -5.1499166188        1.6762754945
 C         2.6667042802       -4.7107791014        1.5089331879
 C         1.4697707169       -5.6395366247        1.9479433112
 O         5.3175244067       -5.8305578039       -0.3595577166
 O         2.3945329805       -3.5990723690        1.0721169048
 C         4.4906529167       -6.6329268060        1.9480889257
 C         4.9702132606       -4.1706049919        2.5955389784
 C         1.0459527746       -6.6838740695        0.8719794547
 C         0.2277871814       -6.1128289130       -0.3177009347
 C        -1.3893653038       -6.3112239316       -0.3818724571
 C        -2.0044811413       -5.0791852990        0.4853888891
 C        -3.3795454612       -5.4235628463        1.0739672557
 C        -1.8953367945       -6.0244225624       -1.7762876091
 C        -1.7299463127       -7.7106296609        0.1903778632
 O         0.7837087831       -5.4612426216       -1.1768628408
 O        -1.4759699899       -3.9891236827        0.6755682569
 C        -4.0267234633       -4.2717108505        1.9993524816
 C        -3.3657720078       -4.4676710562        3.3675183566
 C        -4.0491261318       -3.8719272655        4.7581784102
 C        -3.5063307043       -2.4346327500        4.9880744007
 C        -2.6377211142       -2.0770676142        6.2124244546
 O        -2.2977313556       -5.0303474321        3.4491484074
 O        -3.7780614842       -1.5405525287        4.1292785795
 C        -5.6131650750       -3.7572986068        4.6182288617
 C        -3.6763985147       -4.8550422839        5.8202606401
 H        -6.7083931559        3.6829860604       -3.7779076197
 H        -5.3114654145        3.1583126810       -2.9263954017
 H        -6.8125902900        2.1235429559       -2.6070556850
 H        -4.6001871134        4.3034645140        0.7737954972
 H        -3.7683198418        4.0010156891       -0.8403212945
 H        -6.3921663830        7.2284616541       -3.0737022942
 H        -7.1016441620        5.7451467967       -3.7613055103
 H        -5.3977692663        5.7657222513       -3.5122396285
 H        -7.5631104086        5.9074932023        0.1235260382
 H        -6.6633618059        7.4018353118       -0.3902025864
 H        -8.2109213744        6.7055419544       -1.2064570101
 H        -3.1539763752        6.0433903773        1.2639787560
 H        -2.2091418218        4.5667055798        1.1384628160
 H         1.5560265686        7.8814234648       -1.3468660362
 H         2.2366442164        7.7254754717        0.2060420216
 H        -0.3840191304        8.9215823986       -1.4504679282
 H        -1.9779974833        8.3054410236       -1.8777076503
 H        -0.4512942029        7.4619486551       -2.4853842413
 H        -0.6009728408        7.4031947247        1.7466737559
 H        -0.8354882931        9.0007978430        0.8409379583
 H        -2.1082709564        8.0609521059        1.4144085339
 H         3.7175980152        6.6142859990       -1.4243153248
 H         2.2287194928        5.7049161921       -2.0483518068
 H         2.4793069729        1.5919126698        1.7407348055
 H         1.8034440462        3.1966846780        1.7198551597
 H         4.4036554960        4.2542075469       -2.5923797879
 H         2.7657428959        3.7252986345       -2.5671328538
 H         3.9598190736        2.5247340979       -2.6837327841
 H         5.7333491780        3.9622821849        0.0103838846
 H         4.7222484229        3.1553285223        1.1892977389
 H         5.2059919285        2.2947681418       -0.3362741135
 H        -0.0985964141        1.5141468688        1.8990179752
 H        -0.1879551419        2.6637414694        0.6205387116
 H        -0.2407551521       -0.0105896256       -3.8624439061
 H         1.0344752561       -0.1878080579       -2.6568302330
 H        -3.1597333360        0.5182083495       -0.7478193846
 H        -2.2490029002        1.5793478988        0.4578826042
 H        -2.5124937755       -0.2070035965        0.6483820182
 H        -1.9065173987        1.6586298061       -2.6062687201
 H        -1.3954011598        2.6223348530       -1.3853070732
 H        -0.2778416143        1.9406082843       -2.4801247937
 H         0.3804262446       -2.1706490091       -4.7210828152
 H        -0.1058017668       -3.0263801202       -3.3329352355
 H         3.7679295268       -4.6507558142       -2.6377102195
 H         5.3768637575       -4.3974207330       -2.6144390011
 H         3.3651513648       -4.4363898647       -4.4839151234
 H         3.8127802969       -3.4601761345       -5.7664260549
 H         2.0843594765       -3.7536004256       -5.4101561988
 H         3.7462525314       -0.2974534073       -4.0919625666
 H         3.7814512111       -1.1305024864       -5.7659293762
 H         2.2854966810       -0.6395490922       -4.9182466772
 H         5.6283662123       -3.0976360187       -0.6720546209
 H         3.9268878332       -2.8479187279       -0.2680480153
 H         1.7824638906       -6.0836497984        2.9211652066
 H         0.5631028832       -5.0924031682        2.2378665383
 H         3.8642058082       -7.1244465129        1.2450681676
 H         4.2842010340       -6.9566546431        3.0109451277
 H         5.5253623492       -6.7660984865        1.7509728067
 H         4.7387412793       -3.1191345644        2.3006548798
 H         4.6883450260       -4.3305831654        3.6828550564
 H         6.0549523479       -4.2649038163        2.4646579958
 H         0.6253206237       -7.5044156435        1.4794897568
 H         1.9039945178       -7.1260468545        0.3934726579
 H        -4.0180152816       -5.5546904375        0.2440235659
 H        -3.4335884699       -6.3831760628        1.6369295708
 H        -2.8074378000       -5.5050705968       -1.7373915631
 H        -2.0381097772       -6.8813632276       -2.4162520263
 H        -1.2681336274       -5.2802205534       -2.1919809981
 H        -1.0630291183       -8.3861707132       -0.3998095531
 H        -1.5697628368       -7.9800299773        1.2600153839
 H        -2.7350645036       -7.9322827612        0.0072541611
 H        -3.8237100036       -3.3049979350        1.5690616055
 H        -5.1169199729       -4.2981698442        2.0585504415
 H        -3.2364772464       -1.9064120790        7.0889249605
 H        -1.9909747044       -2.9301662982        6.3459369248
 H        -1.9923139729       -1.2708107960        6.0489334699
 H        -6.1384802879       -4.7234014651        4.5294901462
 H        -5.7737160187       -3.4294581706        3.6417829696
 H        -6.1852869751       -3.0172607841        5.2127492586
 H        -3.7765622544       -4.3923387131        6.7669760973
 H        -4.3134022713       -5.7606319500        5.8484312715
 H        -2.6716450999       -5.2975082121        5.6812603703
 Na        0.4373260867       -2.7337050836        0.0323221255
