155

 C        -6.4142549478        3.0213722624       -2.8446678099
 C        -6.4306011859        3.8922640832       -1.5908087501
 C        -6.1454406473        5.5235301031       -1.7114804754
 C        -4.7155290512        5.9485444867       -1.1352473622
 C        -4.0568381728        4.8303071452       -0.2688217854
 C        -6.3882889766        6.1599710886       -3.0702406053
 C        -7.1966629617        6.1663683254       -0.7014317108
 O        -6.5850509493        3.4882107083       -0.4175724015
 O        -4.2752255471        7.0639108068       -1.3415017236
 C        -2.9386291432        5.5639273585        0.4747190111
 C        -1.8579762630        5.8796771073       -0.4854452364
 C        -0.9758979938        7.1888738727       -0.1785131169
 C         0.5014170546        6.5944815557        0.1308451172
 C         1.8527627593        7.2093455633       -0.3268234426
 O        -1.5397381977        5.1499811768       -1.4538389818
 O         0.5608289563        5.5341189748        0.7344606974
 C        -1.0834663242        8.0038493430       -1.5206087864
 C        -1.4162996204        8.1258286761        0.9336209068
 C         2.6104208395        6.0813825471       -1.1404827265
 C         3.0952888278        5.0648801514       -0.2132183892
 C         3.3300122634        3.6445536151       -0.7399141955
 C         2.1210087739        2.7025434825       -0.3558626752
 C         1.6974594525        2.6214937763        1.0402861492
 C         3.6755248471        3.5291705589       -2.2236762578
 C         4.5874984864        2.9329060763       -0.0285446167
 O         3.2846655756        5.3784296032        0.9526203535
 O         1.6277643629        2.0076250340       -1.2365034809
 C         0.3335241815        1.8416610313        1.1054230918
 C         0.3367503181        0.6498549438        0.0935210070
 C        -0.9907722331        0.5026121112       -0.8246772611
 C        -0.7882438289       -0.8403857383       -1.7913403694
 C         0.0153245982       -0.7819697520       -3.0925943274
 O         1.0313943372       -0.3387043350        0.2902894739
 O        -1.3225788244       -1.8384270786       -1.4072674036
 C        -2.0788272922        0.0881820758        0.1108861218
 C        -1.1566542945        1.7356285312       -1.6922221364
 C         0.5066124302       -2.1278260698       -3.5953330329
 C         2.0045434547       -2.3732759183       -3.0426259833
 C         3.2813977999       -2.3260405867       -3.9053633027
 C         4.5058939259       -2.6063389280       -2.9220454882
 C         4.3808765665       -3.8728915728       -2.0912733301
 C         3.2828966090       -3.1801685225       -5.1566627886
 C         3.2885873309       -0.8354843037       -4.4524243344
 O         2.1268451743       -2.7168186754       -1.8843806357
 O         5.3971722129       -1.7896561097       -2.7335036075
 C         4.5848400199       -3.5833180591       -0.6255479925
 C         4.8058618826       -4.9943293360        0.0791139521
 C         4.0222119449       -5.0180188079        1.5215523987
 C         2.5278655983       -4.6129515177        1.3859402714
 C         1.5066489851       -5.6855122882        1.9253027401
 O         5.4099304209       -5.8195108336       -0.5028451474
 O         2.2017384192       -3.4581864497        1.1568016933
 C         4.2192986322       -6.4640580537        2.0887313203
 C         4.7571319982       -4.0288025416        2.3925072084
 C         1.1562086584       -6.6769895460        0.8014376007
 C         0.3418269334       -6.0335624001       -0.2824909118
 C        -1.2160252984       -6.3172560622       -0.3499642001
 C        -2.0094874211       -5.2505040204        0.5710705146
 C        -3.3746915476       -5.5875466550        1.0404029774
 C        -1.6316870445       -5.9086041440       -1.7243426190
 C        -1.6239232511       -7.7809369932       -0.1489499143
 O         0.8726358225       -5.1932635795       -1.0200781257
 O        -1.5952324930       -4.1159659358        0.6368472018
 C        -3.9557076013       -4.5028372576        1.8598924998
 C        -3.3151271753       -4.5119841109        3.3338778551
 C        -4.0867580102       -3.8988654879        4.5573981570
 C        -3.6976690404       -2.3880708375        4.7914310742
 C        -2.8311794882       -2.1369105822        6.0613611636
 O        -2.2096739181       -5.0151620697        3.4274215038
 O        -3.9392331072       -1.5483769907        4.0142260388
 C        -5.6337134911       -3.8973750400        4.3779878468
 C        -3.7604546051       -4.8971015874        5.7617709738
 H        -6.1830056122        3.7292243648       -3.6748254825
 H        -5.6043840218        2.2615245165       -2.7451605537
 H        -7.3106028571        2.5645318656       -2.8941083764
 H        -4.7695121516        4.6342624609        0.5130704434
 H        -3.5469482751        3.9801761722       -0.6483591981
 H        -6.3329796780        7.2105731131       -2.8456977979
 H        -7.3727407250        5.9657708523       -3.4500813668
 H        -5.6010921966        5.9038732464       -3.7999139315
 H        -7.1018151666        5.8927533232        0.3817917179
 H        -6.9471810586        7.1813927440       -0.7877902364
 H        -8.1797604623        5.8808593630       -1.0507786190
 H        -3.2733828304        6.5323614117        0.8993424425
 H        -2.4101257867        5.1032335920        1.2770522178
 H         1.7538658769        8.1836856715       -0.8369024803
 H         2.5973727774        7.4344203396        0.4130472101
 H        -0.4180635503        8.8456330448       -1.5834584375
 H        -2.0763178078        8.3920923006       -1.6268459025
 H        -0.9134332584        7.3019045059       -2.3399342214
 H        -1.6222576191        7.7139725879        1.8908850575
 H        -0.7573541771        8.9851233842        0.9827597607
 H        -2.3876014673        8.5675547953        0.5869245180
 H         3.4329541802        6.5122473001       -1.6584888601
 H         1.9425056213        5.5433914845       -1.8239274662
 H         2.3486482767        2.0997845922        1.7038391572
 H         1.6016738412        3.6403323403        1.5285270179
 H         4.6584850222        4.0367109201       -2.3858874522
 H         2.9488730678        3.7838490675       -2.9891237873
 H         3.7824839778        2.4921583452       -2.4189295801
 H         5.3657029203        3.6335497902       -0.2064158426
 H         4.4517659833        3.0100735206        1.0142882489
 H         4.9332948620        1.9608390771       -0.2656355678
 H         0.1299116259        1.3500001301        2.0760505058
 H        -0.5344575855        2.4616963247        0.9273130600
 H        -0.7644999017       -0.4244309717       -3.7725009840
 H         0.6462109252        0.0368767213       -3.0738997762
 H        -2.9836423571       -0.1582373912       -0.5171229002
 H        -2.3056671461        0.7602850413        0.8407170145
 H        -1.7762836386       -0.8654258244        0.5843212812
 H        -1.9347837638        1.7420748284       -2.4741201645
 H        -1.5195505943        2.6680175623       -1.2007513535
 H        -0.2572387948        2.0874923078       -2.2240647424
 H         0.3968819999       -2.2496028270       -4.6350824566
 H        -0.0313190479       -2.9612611228       -3.1529724900
 H         3.5851601737       -4.5102459785       -2.3144311412
 H         5.2025023793       -4.5936337568       -2.5187075948
 H         3.4719043416       -4.2796038649       -4.9548530567
 H         4.1543364584       -2.8192352202       -5.7159343547
 H         2.4004456569       -3.0632466735       -5.7476123899
 H         3.1963554756       -0.1529120103       -3.6591778798
 H         4.2222542579       -0.6735850075       -4.8461574307
 H         2.5102521884       -0.6124697912       -5.2271067278
 H         5.5141654240       -2.9477588744       -0.6433970452
 H         3.7298256536       -2.9655300366       -0.2254746276
 H         2.0856697293       -6.0936273213        2.7831003555
 H         0.6023334015       -5.1660578422        2.3671510935
 H         3.7910708191       -7.2174756659        1.4169826236
 H         3.8342802100       -6.5025865301        3.0529689367
 H         5.3518362472       -6.5682663772        2.1763569519
 H         4.9017466251       -3.0952962021        1.8908255535
 H         4.2895119244       -3.9499815452        3.3683908804
 H         5.7737455280       -4.4093817933        2.4903402985
 H         0.6659969117       -7.4816091642        1.2531102532
 H         2.1080767460       -7.0598223147        0.3926543796
 H        -4.1328225545       -5.9321138009        0.2521495560
 H        -3.2915937659       -6.4874477199        1.6298313318
 H        -2.6503027956       -6.3011847038       -1.9995307091
 H        -0.9996659834       -6.4349010840       -2.3937158969
 H        -1.6452154639       -4.8402720005       -1.8764786249
 H        -1.2016062166       -8.4322328059       -0.8345451538
 H        -1.3896260072       -8.0936262657        0.8411455096
 H        -2.7427916690       -7.8257750340       -0.0779969882
 H        -3.7578803486       -3.5812696870        1.2862675859
 H        -5.0264469739       -4.5177148803        1.8330056431
 H        -3.5424746742       -1.7044842791        6.7745757432
 H        -2.2621823633       -2.9674227570        6.4848615389
 H        -2.0297019887       -1.3871666333        5.8418591769
 H        -6.0151119775       -4.8108313293        3.9564719649
 H        -6.1320199336       -3.0772223436        3.7692580302
 H        -6.0345704829       -3.6265482550        5.3525324685
 H        -4.3749303118       -4.7351705839        6.7522955683
 H        -3.9012480951       -5.9322006943        5.4302688001
 H        -2.6705199210       -4.9857429329        5.9440989933
 Na        0.3503644587       -2.9039932506       -0.2842666601
