155

 C        -6.0919440526        3.1205269153       -3.4693555342
 C        -5.9604325835        3.4355874221       -1.9361351923
 C        -6.2094013555        4.9844829697       -1.5053783244
 C        -4.8722609334        5.6707440643       -1.0640974261
 C        -4.1787266707        5.2034607374        0.2735921118
 C        -6.8940411289        5.8496725381       -2.6923770150
 C        -7.2343973176        5.0237908580       -0.2819247209
 O        -5.5192013120        2.6283522894       -1.1844576449
 O        -4.4452889308        6.5906105482       -1.7224047333
 C        -3.2219451331        6.3111900002        0.7266015676
 C        -1.9454022521        6.3193198208       -0.1053784831
 C        -0.9845193987        7.5367288025        0.0097495177
 C         0.2477665110        6.8341059240        0.8458688723
 C         1.6934739400        7.0327595869        0.3694862453
 O        -1.5886616430        5.3713042471       -0.7333987987
 O         0.0379907914        6.2289346506        1.8782136398
 C        -0.5732037088        7.8744274659       -1.4229359297
 C        -1.3222092329        8.8170455078        0.8772924720
 C         2.0783035156        6.0110715085       -0.7431917783
 C         2.9613892146        4.8487504174       -0.1982261164
 C         3.0709419185        3.4738638125       -0.9623062830
 C         1.6757007810        2.7962531562       -0.5831683831
 C         1.2611373098        2.4452345531        0.8362490961
 C         3.1760773903        3.7560350765       -2.5387230246
 C         4.1971827850        2.5801390736       -0.4184712247
 O         3.5999104155        5.0476231214        0.7917736796
 O         0.9424037789        2.6515145056       -1.5267131137
 C        -0.0906237010        1.9110233766        0.9428993203
 C        -0.2528271881        0.5277792134        0.3139323439
 C        -1.3207319047       -0.0258506131       -0.5926964384
 C        -0.7058930751       -0.8438392051       -1.8317090919
 C         0.3681323570       -0.1532767945       -2.7445697389
 O         0.5802867062       -0.3434239206        0.6640214615
 O        -1.0876468948       -2.0011750586       -2.0214070853
 C        -2.0667126691       -1.0066167202        0.2285065809
 C        -2.1414204262        1.1931407535       -1.2091381638
 C         1.2329697218       -1.0960999120       -3.6569009544
 C         2.4296256032       -1.5877029914       -2.8611903313
 C         3.8654514078       -1.6706864340       -3.5254596818
 C         4.7838677743       -2.7868610636       -2.7933319323
 C         4.2321571317       -4.0244392667       -2.0777127673
 C         3.8094148916       -1.9953778743       -5.0087873700
 C         4.4654925497       -0.2231222944       -3.3192467592
 O         2.2626400789       -1.9971333599       -1.7166660647
 O         5.9560230945       -2.5671528001       -2.7858745904
 C         4.6701281010       -3.7010929784       -0.6705002467
 C         4.3067747847       -4.8716771349        0.1687888490
 C         3.9884136881       -4.6406409818        1.7789909697
 C         2.5411255890       -4.4813132981        1.7773095633
 C         1.6636239429       -5.6692366794        2.1107029669
 O         4.1220067104       -5.9803261921       -0.3488795450
 O         1.9609648172       -3.4188861861        1.4773670261
 C         4.5058174246       -6.0724487572        2.4042225496
 C         4.6241568960       -3.4069393070        2.4199362243
 C         1.3393373041       -6.6398081730        0.8923532447
 C         0.8203290810       -5.9838433834       -0.3309790007
 C        -0.7340564679       -6.0036043821       -0.7201838667
 C        -1.5958060423       -5.2073100964        0.3448482313
 C        -2.8787366074       -6.0032390846        0.8113994622
 C        -0.9680082401       -5.1813672351       -2.0860227215
 C        -1.1910019386       -7.4493901862       -1.0010834827
 O         1.5200871923       -5.3746680191       -1.1347920457
 O        -1.3008858070       -4.0988405546        0.6975242564
 C        -3.7851081600       -5.1122989803        1.7121251921
 C        -3.3954812742       -5.1187995012        3.2051545280
 C        -4.2934831357       -4.2737301119        4.1248703572
 C        -3.9753146715       -2.7299465836        3.9501127148
 C        -3.1474852423       -2.0620454749        5.0067175201
 O        -2.3491641410       -5.6372698489        3.5345308497
 O        -4.4957951975       -2.1232900891        2.9578396590
 C        -5.9033516468       -4.4098607562        3.8115447486
 C        -4.0652012480       -4.7875739741        5.5958392873
 H        -6.2025806662        2.0285856599       -3.4007997942
 H        -6.9493438554        3.5387360833       -4.0022431454
 H        -4.9892345759        3.2373578362       -3.9287216672
 H        -4.9830797127        4.9234993295        1.0133571364
 H        -3.6102289379        4.2221005216        0.2007112480
 H        -6.7406297970        6.9584820574       -2.5675679170
 H        -7.9922142486        5.6227899804       -2.8740800970
 H        -6.3336375393        5.6098369902       -3.5827595899
 H        -6.7714785164        4.5415878127        0.5378548865
 H        -7.5530502514        6.1017321803       -0.0519093452
 H        -8.1012278674        4.5716650893       -0.5853602226
 H        -3.6612915809        7.3527687539        0.7038087144
 H        -2.9686235393        6.1468352589        1.7831452259
 H         1.6883701708        8.0325423291       -0.0623222535
 H         2.5786940235        6.8875489215        1.0449926899
 H        -0.0491166602        8.8257356964       -1.3888058551
 H        -1.4397422745        8.0398923441       -2.1446536122
 H         0.1222601258        7.1558221560       -1.8600576848
 H        -1.6694331220        8.5763509836        1.8920431681
 H        -0.3357109449        9.3258433401        1.0287713693
 H        -2.0038741172        9.4570876272        0.2822580490
 H         2.5833148601        6.5271240322       -1.5568028220
 H         1.2359254738        5.5109033048       -1.3083072800
 H         1.8784211890        1.7189999959        1.3514443333
 H         1.2788819120        3.3705312754        1.4873077675
 H         4.2101202230        4.1640608963       -2.7026999688
 H         2.5481474711        4.5042244007       -2.8636285832
 H         3.1845046942        2.8156660373       -3.0968532933
 H         5.0588556021        3.1946440593       -0.1483131303
 H         3.9613699562        1.9559540998        0.4775094486
 H         4.6081466691        1.8022117396       -1.1792461627
 H        -0.4702141487        1.6327199599        1.9552597788
 H        -0.7279796356        2.5900586266        0.4366264644
 H        -0.0443593823        0.6086573744       -3.3792506746
 H         1.1188248012        0.3895186704       -2.0449992868
 H        -2.8621906292       -1.3885512754       -0.3786860345
 H        -2.6233037756       -0.4000354654        1.0702472931
 H        -1.4169302399       -1.7124479695        0.6129800831
 H        -2.9558694661        0.8966225707       -1.8016928492
 H        -2.4937265758        1.8282483743       -0.3564330266
 H        -1.5888301782        1.9104193292       -1.8352194233
 H         1.5617362743       -0.5387907859       -4.5200699247
 H         0.6291686202       -2.0136137527       -3.9748305204
 H         3.1333120486       -4.1835234461       -2.1372025006
 H         4.9107266340       -4.8349344633       -2.4297875607
 H         3.3634077601       -2.9421532459       -5.0984255459
 H         4.8127388791       -1.9980921352       -5.4551384136
 H         3.2034250368       -1.2762516472       -5.5966725104
 H         5.0433519857       -0.2071992588       -2.3331686406
 H         5.2378587143       -0.0102607822       -4.1189208790
 H         3.8170972478        0.6585159954       -3.3167006268
 H         5.7157144537       -3.4937184198       -0.6538182261
 H         4.1885032054       -2.6806867659       -0.3423373356
 H         2.1788843558       -6.1181251561        2.9959702681
 H         0.7758836080       -5.1234441401        2.5347724829
 H         4.0811704891       -6.9336274097        1.9209301499
 H         4.4696427462       -6.1272322014        3.4921514021
 H         5.5974382010       -6.1002537296        2.1623912442
 H         3.9474133202       -2.6018429566        2.1948840837
 H         4.5583526305       -3.4959692077        3.5832396652
 H         5.6548929668       -3.3252545390        2.1306370914
 H         0.7338936285       -7.3888390820        1.3032298319
 H         2.2298971284       -7.0862294231        0.4726281382
 H        -3.5110457817       -6.3433525453       -0.0476282389
 H        -2.5804470351       -6.9205400264        1.2077696543
 H        -2.0617938029       -5.2788597000       -2.2746340946
 H        -0.3830150319       -5.6363354888       -2.8991818060
 H        -0.6314024958       -4.1580709293       -2.0839013528
 H        -0.5174772890       -8.0763382399       -1.5712822100
 H        -1.3556928679       -8.0369751897       -0.0385518201
 H        -2.0435105440       -7.3498794948       -1.6603471198
 H        -3.7759394045       -4.0689609672        1.3557382367
 H        -4.7799541839       -5.4124379504        1.6002213316
 H        -3.8280655968       -1.7551959617        5.8031434694
 H        -2.3500418101       -2.6636477582        5.4292824300
 H        -2.7761344092       -1.1307937822        4.6146401649
 H        -6.2712898184       -5.3882232344        3.5748949480
 H        -6.0438460189       -3.7543196311        3.0078426327
 H        -6.5086397805       -4.1147483832        4.7138944360
 H        -4.6413808441       -4.1607393686        6.3008064550
 H        -4.4988146842       -5.7896176901        5.5019825997
 H        -3.0109842125       -4.6604753620        5.8954276221
 Na        0.5703928244       -2.9681886227       -0.4909383339
