155

 C         7.7646925679       -7.8641881441        2.8334971147
 C         7.8636671298       -6.3509859456        3.0986905908
 C         6.8115247452       -5.3611931827        2.4500997977
 C         5.3709221535       -5.4007953837        3.1581692524
 C         5.3535532032       -4.8690567201        4.6415111679
 C         7.4343729701       -3.9632620182        2.5453898224
 C         6.5398807953       -5.8759959769        1.0331665551
 O         8.6671270388       -5.9155903604        3.8883278203
 O         4.2924079054       -5.5254243566        2.6224315522
 C         3.9605702738       -4.7402798524        5.2614805643
 C         3.0672108326       -3.5341168388        4.7801264584
 C         1.4006010586       -3.6536382703        5.0594904044
 C         0.7171689728       -2.1960282111        4.9940100270
 C         0.6489527505       -1.3252609479        3.7386415085
 O         3.4420386455       -2.6195229270        4.0537690742
 O         0.4099370538       -1.6596159726        6.0685017771
 C         0.7568698409       -4.4163111057        3.9067093737
 C         1.1389282817       -4.3592452786        6.4898291531
 C         0.8175668402        0.0918157748        4.1755173349
 C         0.3733166104        1.0275203872        3.0028259724
 C        -0.2416133822        2.5048692597        3.3266041483
 C         0.8475342939        3.4735956320        2.6529293568
 C         1.7711782574        4.1856212064        3.5205816379
 C        -1.6710641408        2.8415895117        2.6803176651
 C        -0.2693759327        2.6194661104        4.8079646109
 O         0.5298631338        0.7974150185        1.8412421428
 O         0.7678284870        3.7109266492        1.4712006703
 C         2.7720606170        4.9645475215        2.6565244640
 C         4.0598741094        4.1375910705        2.3611720201
 C         4.8765150369        4.5835336681        1.1124283575
 C         4.5226638653        3.3900382723        0.1100002036
 C         4.7421789281        1.8752778331        0.4087903866
 O         4.1851450254        3.0318518246        2.8765752973
 O         4.0652057843        3.7150910690       -0.9333086960
 C         4.5753748033        5.9703709381        0.5005642237
 C         6.4380079879        4.4852256047        1.4750511878
 C         4.5913838196        1.0453454138       -0.8449277948
 C         3.1247718579        1.2282395428       -1.4174777143
 C         2.8543294926        0.9134000076       -2.9324463826
 C         1.3988907956        1.3246105917       -3.2088977560
 C         1.0264103937        2.7550310905       -3.7600468074
 C         3.9945878827        1.5422316675       -3.7554206456
 C         2.9184977167       -0.6714692428       -3.0850179147
 O         2.2624593667        1.5384408827       -0.6498621078
 O         0.4570873138        0.5627425934       -2.9467859005
 C        -0.3906389205        2.7281898425       -4.2732725956
 C        -1.3099067797        2.5465744054       -3.0143533713
 C        -2.7591596873        1.8338866960       -2.9597000758
 C        -2.6414914264        0.6666751280       -1.8386356693
 C        -3.3011702743       -0.6019240627       -2.2501984776
 O        -0.8883325931        3.0658267416       -2.0100420500
 O        -1.9569831567        0.8773186478       -0.8174516758
 C        -3.8430166814        2.8971039941       -2.4945012108
 C        -3.0633954088        1.4083354795       -4.5056741651
 C        -4.4600816469       -0.9390330590       -1.0777133624
 C        -5.5624655494       -1.8703061399       -1.5459264566
 C        -6.9947628573       -1.5636075425       -1.1367564794
 C        -7.4084828126       -0.3460660890       -2.1365691989
 C        -8.8849312883       -0.2122968569       -2.5584138473
 C        -7.9095950438       -2.8506224850       -1.3733482495
 C        -7.1343048432       -1.1354119894        0.2537300758
 O        -5.3001837725       -2.7736954488       -2.3211839312
 O        -6.6482527441        0.5692545135       -2.3448718372
 C        -9.1306854181        0.6407132644       -3.7927149079
 C        -9.0357999436       -0.2304085494       -5.0855978865
 C        -8.4183445807        0.3085404473       -6.3778845365
 C        -9.2669687353        1.5206217754       -6.8462942563
 C       -10.6690346453        1.0890682571       -7.4627306643
 O        -9.5590901026       -1.3155543501       -5.0563164699
 O        -8.9691439492        2.6947408619       -6.7364324511
 C        -6.9268300234        0.6372861059       -6.0207100453
 C        -8.4238613560       -0.7584832986       -7.5141018628
 H         7.3436831957       -8.3523823086        3.6909211692
 H         7.1287001331       -8.0800346368        1.9945722087
 H         8.7267156549       -8.4251655715        2.8031487119
 H         5.9820916918       -5.4763720307        5.3142210992
 H         5.9406422497       -3.9844753075        4.6188713182
 H         8.4342371325       -3.7445794598        2.1251178264
 H         7.5679410214       -3.6924840867        3.5798127036
 H         6.7178594521       -3.2097370234        2.0846020561
 H         5.6784851372       -6.6095965735        1.0297961043
 H         6.2241406898       -5.0647611001        0.4397512021
 H         7.2729244711       -6.3402754906        0.4548557504
 H         3.4042642291       -5.5975810249        5.0437883856
 H         4.0289797240       -4.7709876272        6.3448624235
 H         1.5389619215       -1.6275211151        3.1256790310
 H        -0.3322707034       -1.5499206562        3.2105655484
 H         1.0426427593       -5.4328901019        3.9199025005
 H         1.1032398550       -4.0663133844        2.8968473407
 H        -0.3110879895       -4.2349428071        3.9757968174
 H         2.1151023496       -4.3540366725        7.0105075764
 H         0.4227793461       -3.8335727311        7.1402692665
 H         0.7731742806       -5.3776972248        6.5309820694
 H         1.8498227216        0.2951102340        4.3721463648
 H         0.2965419726        0.2760376124        5.1570318051
 H         1.1350934725        4.7704742642        4.2115979632
 H         2.4260940223        3.4628944189        4.0579293280
 H        -1.8938890008        3.8826404361        3.0532324622
 H        -2.3846266478        2.1615040531        3.1022228148
 H        -1.8176329033        2.5723656300        1.6155500234
 H        -0.7870647741        1.8382181557        5.3077085464
 H         0.7718483948        2.4102784498        5.0976427948
 H        -0.3657957042        3.5467667336        5.2913504038
 H         2.3567046149        5.2442503904        1.6742498602
 H         2.9423024214        5.9451136092        3.1284445151
 H         5.7759524254        1.6883247882        0.8409458530
 H         3.9803213346        1.6892438311        1.1001743427
 H         4.2465684476        6.7327261215        1.2135262269
 H         3.7794794464        5.9326473787       -0.2336953627
 H         5.4202039386        6.5087175801        0.0036956978
 H         7.1279743487        4.6688523430        0.6173506633
 H         6.7562125787        5.2174620828        2.2390002723
 H         6.6791525272        3.4931946137        1.8212475057
 H         4.7114795372       -0.0443398722       -0.6028016999
 H         5.3076542680        1.4047686949       -1.5571997705
 H         0.9773744135        3.4712006780       -2.9412298883
 H         1.6589462786        3.2190864355       -4.4530922731
 H         4.9014879697        1.2139588335       -3.2859524944
 H         3.9438003441        2.5837479838       -3.6401338705
 H         3.9980171231        1.1004627354       -4.7521190312
 H         3.8017884048       -1.1866262616       -2.8079618518
 H         2.0075187102       -1.1503387191       -2.5911784398
 H         2.7645318669       -0.9934673889       -4.1325394727
 H        -0.6014190735        3.7185349810       -4.7034237773
 H        -0.4658775094        1.9400256786       -5.0453179042
 H        -3.6708034991       -0.5899773126       -3.2669210490
 H        -2.5978894892       -1.3975090261       -2.0702935792
 H        -3.6014520543        3.1728678574       -1.4847820935
 H        -4.8362434168        2.4156322216       -2.7762379966
 H        -3.8199680505        3.8032382137       -3.0564904206
 H        -4.0876354610        1.1167484326       -4.5370736279
 H        -3.0069891092        2.3085351941       -5.1861854875
 H        -2.2248764895        0.7515036175       -4.8769609545
 H        -4.8888810168        0.0616341745       -0.9134574685
 H        -3.9187123746       -1.2565550674       -0.2392921571
 H        -9.2795051750       -1.1927721223       -2.7346118249
 H        -9.3724764711        0.2791768710       -1.6712765164
 H        -7.2693176631       -3.6161929238       -0.8822676238
 H        -7.9055972243       -3.1649772858       -2.4519004686
 H        -8.8660967567       -2.7550177398       -0.8574689973
 H        -8.1388633831       -0.7542680515        0.4347917711
 H        -7.0419874634       -2.0497754904        0.8991036094
 H        -6.4818395443       -0.3871205338        0.6715359582
 H       -10.2064340568        0.9779773062       -3.8016471677
 H        -8.5868687938        1.5777209228       -3.7172215597
 H       -10.6658403163        1.1030362605       -8.5709617231
 H       -11.0119293810        0.0701781957       -7.2036776513
 H       -11.4586448234        1.8213274836       -7.1248031141
 H        -6.5032763773       -0.0530948652       -5.3384106255
 H        -6.7559640952        1.6231962387       -5.6693506065
 H        -6.4156535441        0.4281893611       -6.9385134955
 H        -8.2586992954       -0.1449465678       -8.4321627762
 H        -7.5251523269       -1.4483805084       -7.4318571490
 H        -9.3167605352       -1.3268292645       -7.5778022124
 Na       -0.0504433249        2.1346467681       -0.2258771002
