155

 C         7.6773256716       -7.8854577358        2.7486769701
 C         7.6137154955       -6.3790697017        3.1458456291
 C         6.5959039367       -5.4725303626        2.4717198535
 C         5.1171584073       -5.3637503805        3.1913554173
 C         5.1504021581       -5.1945685932        4.6922623583
 C         7.2947148992       -4.0372565715        2.4389653375
 C         6.3507080513       -5.7273375308        0.9810282545
 O         8.3938657896       -5.9158509479        3.9373392551
 O         4.1114976080       -5.2844643744        2.5209205884
 C         3.7301429061       -4.9552220474        5.1997883693
 C         3.0426298806       -3.6496234501        4.6239931479
 C         1.4809382502       -3.5975089926        4.9539051032
 C         1.0250016604       -2.1659237424        4.9682064721
 C         1.0701339618       -1.2787489579        3.6118745746
 O         3.6369243441       -2.9263402553        3.8762213657
 O         0.7059017297       -1.5766049517        5.9745739379
 C         0.8427120622       -4.4683880969        3.7882057733
 C         1.1597013368       -4.2327615832        6.3076746684
 C         0.7594329539        0.1738389011        4.0540996683
 C         0.5695058434        1.1688374226        2.8958900731
 C        -0.1483468397        2.5920723791        3.3796833334
 C         0.6938238506        3.6146393169        2.6772305858
 C         1.6745072148        4.5704092564        3.5428025304
 C        -1.5590496987        2.4740921274        2.7561622480
 C        -0.2807970627        2.8758622558        4.8399098765
 O         0.6548370404        0.9240529749        1.6937082225
 O         0.7929962452        3.6965897113        1.4357741438
 C         2.8094700710        5.2406661082        2.7542095504
 C         3.8318342626        4.1058695610        2.3406213001
 C         4.7896017557        4.3179819022        1.0239765668
 C         4.6556453703        3.2799562416       -0.0555366551
 C         5.0220260619        1.8127559163        0.3890519293
 O         4.0835359647        3.1841989544        3.0544512906
 O         4.1092083428        3.4877812237       -1.1191944075
 C         4.3423068158        5.7406770558        0.3846030382
 C         6.2307025757        4.5466023842        1.4172554331
 C         4.6423267767        0.8432107435       -0.7347100988
 C         3.2933274724        1.1527535472       -1.4275583091
 C         2.9850165056        0.8455316093       -3.0178768914
 C         1.4549395309        1.2608595156       -3.2804673568
 C         1.1604460842        2.5179192913       -3.9869337740
 C         3.8201281402        1.7035911868       -4.0447264632
 C         3.2068497999       -0.6876398761       -3.2803528734
 O         2.3850471799        1.4896637674       -0.6981146134
 O         0.6141336245        0.5593511173       -2.7977785704
 C        -0.4186622660        2.6909390182       -4.2040794499
 C        -1.2034967561        2.7283834879       -2.8852940281
 C        -2.5535962605        1.7893789252       -2.9064225008
 C        -2.4930158480        0.7114517025       -1.7965661378
 C        -3.5380129460       -0.4878612490       -2.0718267851
 O        -0.9531471346        3.4568137229       -1.9219304010
 O        -1.7861639947        0.7861564077       -0.8088945956
 C        -3.6889117390        2.6472227224       -2.2437735595
 C        -3.0967362071        1.2141633906       -4.3386776502
 C        -4.3426666219       -0.9130387082       -0.8778732739
 C        -5.5128090122       -1.8091895802       -1.3535057466
 C        -7.0547627997       -1.4952041598       -1.1796252859
 C        -7.4764112478       -0.2867353621       -2.0448161972
 C        -8.9133152222        0.0123778103       -2.3769239323
 C        -7.8932724201       -2.7455307872       -1.5322310214
 C        -7.2402829981       -1.0006869846        0.2819307474
 O        -5.1750425250       -2.6059188559       -2.1919134867
 O        -6.6666129854        0.5695776880       -2.3932620135
 C        -9.0064478335        0.6287774891       -3.8166372967
 C        -9.0755307128       -0.3723432133       -4.9663063817
 C        -8.5156721113        0.1596286982       -6.3237387915
 C        -9.5145638007        1.3877906157       -6.7057210433
 C       -10.7689377306        1.1444450106       -7.4121193948
 O        -9.7716842611       -1.3620433146       -4.9108606032
 O        -9.2262238449        2.4466608791       -6.2166084677
 C        -7.1320514183        0.9357410434       -6.2246392408
 C        -8.4534155397       -0.9536067298       -7.3085676023
 H         7.6713153603       -8.6665865306        3.5888578143
 H         6.9499045693       -8.1088257960        1.9827666303
 H         8.6410463765       -8.1199167948        2.3481604933
 H         5.8264679350       -5.9215691474        5.2247167344
 H         5.7174769432       -4.2807075258        4.8799408494
 H         8.2784710750       -4.0513374777        1.9178619958
 H         7.4464132713       -3.5017349476        3.4216272554
 H         6.7211913983       -3.3932132712        1.8109582852
 H         6.0023421734       -6.6840529508        0.7216704095
 H         5.5834417478       -4.9536276951        0.6063980127
 H         7.2690813279       -5.6440434148        0.3159967537
 H         2.9159541342       -5.7849838404        5.1422048423
 H         3.8304950087       -4.8882224387        6.3150569711
 H         2.0996502881       -1.2364348184        3.3261481495
 H         0.4904993781       -1.7217127921        2.8542169588
 H         0.8338079261       -5.5596858662        4.0119865362
 H         1.4950909268       -4.4251422698        2.9653964447
 H        -0.1242958520       -4.0735279824        3.4790537421
 H         1.9301586057       -4.2325467111        7.0210017022
 H         0.2113128198       -3.8817496285        6.6470560748
 H         0.8818253490       -5.2810993333        6.1953516046
 H         1.6078503122        0.5853559821        4.7214022277
 H        -0.1446909267        0.1965652904        4.6671259892
 H         1.0260126735        5.3915091752        3.9102711136
 H         2.1715199926        4.0403367454        4.3559663678
 H        -2.1926648949        3.1350062125        3.2400346960
 H        -1.9564578068        1.4680136042        2.7854487156
 H        -1.4903491604        2.6424446532        1.7083063518
 H        -1.0678335479        2.2510445066        5.2841430229
 H         0.5184621679        2.8891063354        5.5758687477
 H        -0.5568334353        3.9625771635        4.9161002398
 H         2.4060594735        5.8588327763        1.9610231115
 H         3.2572573499        5.9943765130        3.3938333259
 H         6.0633642173        1.7755275513        0.5564397934
 H         4.4618616774        1.6539270837        1.3495695660
 H         4.5584991452        6.5831744479        0.9898476608
 H         3.2754242007        5.7736077422        0.1393856268
 H         4.8403725137        6.0576537517       -0.4889439304
 H         6.8258434728        4.5916500306        0.5248731671
 H         6.4084842156        5.4835500173        1.9453188125
 H         6.6247078081        3.7234789980        2.0512297802
 H         4.4871855860       -0.1230815627       -0.2853941682
 H         5.4304240388        0.6906187984       -1.5273822877
 H         1.6040092477        3.4042683402       -3.4666994361
 H         1.6496107541        2.5773292335       -5.0243897001
 H         4.7972979910        1.2602234146       -4.2925389661
 H         3.9622542965        2.7369121374       -3.5840788491
 H         3.1424237158        1.6642313256       -4.9372534367
 H         4.3120295649       -0.9178715250       -3.2233240192
 H         2.6398231567       -1.2948776436       -2.6559512668
 H         2.9300382272       -1.0787717347       -4.2308680095
 H        -0.6128080801        3.6301936454       -4.7160450020
 H        -0.7260167034        1.8599083257       -4.8430938658
 H        -4.3170905684       -0.1104940016       -2.7540261354
 H        -3.1064180739       -1.4185159104       -2.4258916403
 H        -3.2813111424        2.9103741365       -1.2820608820
 H        -4.5922609329        2.1437399783       -2.3625954255
 H        -3.8322746547        3.6176931035       -2.7863506119
 H        -4.1943697520        1.0844565347       -4.1559117182
 H        -2.8945030039        1.9471695159       -5.1269537547
 H        -2.5278345268        0.3781663706       -4.5847768569
 H        -4.5984353104        0.0422191486       -0.3813208982
 H        -3.6685775232       -1.6309372987       -0.2698737676
 H        -9.5598905116       -0.9017822922       -2.2545109912
 H        -9.2320127177        0.8289819868       -1.7307870254
 H        -7.3115808229       -3.6450380239       -1.4433463221
 H        -8.1901638282       -2.7390695454       -2.5708717094
 H        -8.7554559420       -2.6449908585       -0.8415818868
 H        -8.2269396495       -1.1027725539        0.7995116065
 H        -6.5196148952       -1.4182289410        0.9613079857
 H        -6.9851235884        0.0879485810        0.3020830211
 H        -9.8549210578        1.2668978451       -3.8494163145
 H        -8.1772282528        1.3360565853       -3.8822755497
 H       -10.7684725758        1.3106349503       -8.4811990280
 H       -11.0334128103        0.0841552503       -7.2929475010
 H       -11.5521711120        1.7167199719       -6.9457816249
 H        -6.2960022379        0.3484461142       -5.8649062991
 H        -7.2899939775        1.7485100678       -5.5301558649
 H        -6.9334320385        1.3791447671       -7.1981238929
 H        -8.6582230373       -0.6040331354       -8.2857332529
 H        -7.5401914983       -1.4710921864       -7.2786635415
 H        -9.2118259425       -1.7075541471       -6.9474176623
 Na        0.2725343224        2.1552158849       -0.2531563811
