155

 C        -5.8934360561        5.9944026931       -3.5168190776
 C        -5.7332724293        4.7643007339       -2.5629492861
 C        -6.5530955488        4.5455566859       -1.1775864405
 C        -5.9499456429        5.6324585872       -0.1662675233
 C        -4.7685263748        5.1653993303        0.5680406299
 C        -8.1721654966        4.9277999391       -1.3466808430
 C        -6.5452755917        3.1662929122       -0.6610720074
 O        -4.7590692986        4.0814100080       -2.7123897234
 O        -6.4456232336        6.7425567771       -0.0127215485
 C        -3.9831136478        6.2309798477        1.3420287050
 C        -2.6619227467        6.4407162106        0.7473275597
 C        -1.7803247570        7.7400910812        1.1488669821
 C        -0.7591512839        7.3017832771        2.1908937880
 C         0.7848345806        7.2049747293        1.9163818545
 O        -2.1174183372        5.5976242982        0.0257917640
 O        -1.1440841436        7.0163721281        3.3692849814
 C        -1.2131051884        8.2886371494       -0.2873887138
 C        -2.5996509675        8.8614718543        1.8051263389
 C         1.2830044298        6.0846668645        0.9759924781
 C         0.9664299223        4.6765268929        1.5816763472
 C         1.8165813175        3.4217909402        1.2155365132
 C         0.9585313964        2.4652321977        0.3194636701
 C        -0.3693538894        1.8587180068        0.9809834879
 C         3.1165049906        3.6519260784        0.4924881012
 C         2.0542638252        2.6521636776        2.5769585687
 O         0.0084981000        4.5084067589        2.2504236222
 O         1.2654998180        2.1836612308       -0.8384482730
 C        -1.3073791960        1.0913859573       -0.1355221733
 C        -0.5721422410       -0.0376071173       -0.7852858670
 C        -1.1509697010       -0.2793360049       -2.2989381857
 C        -0.0222088579       -1.1556177108       -2.9480697373
 C         1.0855600632       -0.3948850090       -3.6281454714
 O         0.2888532046       -0.6798292973       -0.2473225225
 O         0.0870418874       -2.3565783392       -2.7064897164
 C        -2.3739156017       -1.1380560918       -2.0453086114
 C        -1.4453588037        0.9692628932       -3.1735969539
 C         2.2695187980       -1.2473740135       -4.2460387435
 C         3.1440205481       -1.8933211693       -3.1564216181
 C         4.5923043597       -1.5230607457       -3.0610291039
 C         4.8781509231       -1.3319495175       -1.4491317716
 C         4.4882997727       -2.5372251524       -0.4868451106
 C         5.3559550516       -2.7340136921       -3.5558202032
 C         4.9744665914       -0.2595338061       -3.7246881477
 O         2.7466502916       -2.7715720479       -2.4139835444
 O         5.4792268632       -0.4117800007       -0.9841956615
 C         5.1226202528       -2.3521948213        0.9158095242
 C         5.1433399299       -3.6520936989        1.6630238968
 C         3.8524929125       -4.0182506278        2.6190926098
 C         2.5976503707       -4.2705466711        1.7902838046
 C         1.9682883168       -5.6961733948        1.9282845444
 O         6.0165981248       -4.4600645967        1.5322610316
 O         2.0437801534       -3.3282787834        1.2706871629
 C         4.3859182139       -5.3083135465        3.3389541410
 C         3.5214647907       -2.7986069481        3.4687860975
 C         1.9328741766       -6.6028470330        0.7176559452
 C         1.8512771690       -5.9774274089       -0.6831503368
 C         0.7153743577       -6.5343893216       -1.6528054094
 C        -0.6540857276       -5.9141373335       -1.0310424882
 C        -1.7824327289       -6.8875065096       -0.7926065115
 C         0.7812346117       -5.6041395543       -2.9184542074
 C         0.8932787328       -8.0086167674       -1.9509758860
 O         2.5791125733       -5.0643986662       -1.0136959554
 O        -0.7560006675       -4.7035726654       -0.8077707143
 C        -3.1092739826       -6.2124689547       -0.3332188642
 C        -3.0130979814       -5.8763033557        1.2387976091
 C        -4.0118128075       -4.7402960191        1.7394973514
 C        -3.3891799718       -3.3627694032        1.9564606223
 C        -2.4445495284       -3.1162764393        3.1240688892
 O        -2.2579909175       -6.3718751112        1.9765356898
 O        -3.5822934642       -2.4352388992        1.1300078063
 C        -5.1762866261       -4.6077758126        0.6981632390
 C        -4.5392647901       -5.3145424462        3.0619326538
 H        -5.1131369858        5.8905278216       -4.3374836949
 H        -6.8809307639        6.0336788853       -3.9344924535
 H        -5.6842197702        7.0057695213       -3.0348876125
 H        -5.0225890207        4.2878455227        1.1566336940
 H        -4.1659827501        4.6247467817       -0.1889349911
 H        -8.2994852845        5.8386662609       -1.8860383007
 H        -8.6142879321        4.8786197725       -0.2980868119
 H        -8.7136481477        4.1838556984       -1.9155182575
 H        -5.5647592004        2.6901106621       -0.4885049737
 H        -7.0650940945        3.1225528067        0.2584376612
 H        -7.0324739484        2.4640688155       -1.3855677780
 H        -4.6487929296        7.0361564002        1.4192041264
 H        -3.8169812325        5.8857374858        2.3953657801
 H         1.1121480362        8.1872277504        1.4834154534
 H         1.1780473559        7.0888987877        2.9395291436
 H        -0.4690133142        9.0876774503       -0.1891166992
 H        -2.0764710853        8.7438388791       -0.7016466281
 H        -0.8427918854        7.4812649119       -0.9114982765
 H        -3.0675567315        8.5036741971        2.7293104738
 H        -1.8580078016        9.5629614744        2.1907036307
 H        -3.3386492789        9.4730043546        1.2215063955
 H         2.3093116228        6.1150523292        0.7131560857
 H         0.7264001651        6.1490213363       -0.0250596964
 H         0.0024726319        1.2625383945        1.8533369843
 H        -0.9881627947        2.6003043706        1.4600371236
 H         3.8111704164        4.3081278374        1.0204693519
 H         2.9150912981        4.1972265603       -0.4138079718
 H         3.5866290478        2.6639653609        0.2729556715
 H         1.7219244413        1.5820673932        2.4866584885
 H         3.1167814236        2.6879331812        2.9465333733
 H         1.4845499829        3.1929246326        3.3613829098
 H        -2.0667693231        0.7422928723        0.5285981552
 H        -1.7554602580        1.8573919062       -0.8360262960
 H         0.6076578892        0.2374999812       -4.4304269720
 H         1.4934902805        0.2921073417       -2.8972961851
 H        -2.9783903953       -1.2232844086       -3.0073093665
 H        -3.0684852636       -0.5887948172       -1.4475413403
 H        -2.1043062683       -2.0710252851       -1.6932256507
 H        -1.3266050596        0.6550210773       -4.2277978568
 H        -2.4872615300        1.3615825747       -2.9898667232
 H        -0.6252259686        1.6290235121       -2.8374496071
 H         2.8560287615       -0.6932935722       -5.0738769802
 H         1.8942439854       -2.1061773327       -4.8337836544
 H         3.4984296203       -2.7300268304       -0.2067698403
 H         4.7835793353       -3.4474371854       -0.9760942876
 H         4.9640025372       -3.6064238628       -3.0864697958
 H         6.4701269446       -2.6585156410       -3.3143900218
 H         5.3048841869       -2.8747141688       -4.6439328158
 H         4.1498129461        0.5205514579       -3.5720428904
 H         5.9792729541        0.1276822395       -3.3323965038
 H         5.1826100222       -0.4445215565       -4.7558173440
 H         6.1058672696       -2.0606619170        0.8679971989
 H         4.6914559486       -1.4787610590        1.4771723420
 H         2.2440206406       -6.2266937495        2.8382276274
 H         0.9637283443       -5.3740465191        2.2056212915
 H         4.5154603497       -6.0061434973        2.5094089504
 H         3.6588718803       -5.6605761011        4.1692168168
 H         5.3321014500       -5.0842582836        3.7115837856
 H         2.7193448247       -2.1710486255        3.0911415537
 H         3.2383427527       -3.0231882380        4.5757212220
 H         4.3982547357       -2.1676317226        3.5602642142
 H         1.1093986321       -7.2437917848        0.7722310123
 H         2.8495668382       -7.1502803068        0.6494081263
 H        -1.8811131421       -7.4324770452       -1.7592720746
 H        -1.3449646642       -7.6421646600       -0.0249466303
 H        -0.1622423489       -5.5626793757       -3.3375672479
 H         1.4233478656       -6.0743705422       -3.6781760967
 H         1.2002395988       -4.6015469442       -2.8270150214
 H         1.9385888976       -8.1825068716       -2.1513637923
 H         0.6575470812       -8.5638918829       -0.9928521809
 H         0.2416163868       -8.4022890779       -2.6490979288
 H        -3.2448865102       -5.3119129836       -0.9504925599
 H        -3.9482876041       -6.9696651474       -0.5541971664
 H        -1.4236405704       -3.5213716005        2.8884013992
 H        -2.2442603709       -2.0348876767        3.2737238494
 H        -2.9079594443       -3.5661970656        3.9748121743
 H        -5.9005393260       -5.3905085153        0.4979629945
 H        -4.9344972596       -4.2245847110       -0.2716960404
 H        -5.8632179150       -3.8762467010        1.2350030512
 H        -5.3492726356       -4.7454297738        3.5693909492
 H        -4.9362485324       -6.3808086216        2.8728306517
 H        -3.7293935740       -5.4074673770        3.8695568856
 Na        0.7079933771       -2.9553714418       -0.6522194317
