155

 C        -6.4086234393        6.1508224494       -3.1702252457
 C        -6.2399420413        4.7575159542       -2.5609054712
 C        -6.4460767546        4.5694695647       -0.9031150812
 C        -5.2793641309        5.3035963433       -0.2117021297
 C        -4.4288596545        4.4751982801        0.7577396882
 C        -7.8228003647        5.0309103514       -0.4264848362
 C        -6.2018201049        3.0290300376       -0.6616400447
 O        -6.0091851631        3.7694838067       -3.2405378573
 O        -5.0878627634        6.4922496476       -0.4175594813
 C        -3.4582741984        5.4903366125        1.4144193293
 C        -2.7028797463        6.4608556624        0.5281124072
 C        -2.0318016541        7.6784773643        1.3431518511
 C        -1.2615634451        7.1102406940        2.6970777313
 C         0.0599232778        6.3982766524        2.7614112739
 O        -2.1577552411        6.2601636572       -0.5506429878
 O        -1.8771458676        7.2101260836        3.6991236724
 C        -1.0033600402        8.4122616244        0.4451260309
 C        -3.1554111386        8.6186921370        1.8880903884
 C         0.3163121252        5.3471979970        1.6987710831
 C         0.0295003957        3.8478798463        2.1075449954
 C         1.0013604981        2.7533888454        1.8532586341
 C         0.3212826063        1.8283109616        0.7792561683
 C        -0.9737954814        1.1194746054        1.2181110023
 C         2.3910824345        3.2049518183        1.3582781810
 C         1.1608214986        2.0248975565        3.1607097102
 O        -1.0464824472        3.6216356377        2.6320926425
 O         0.8302949854        1.6274749027       -0.3338222801
 C        -1.7486593020        0.5601932129        0.0546122058
 C        -0.8778681749       -0.3471640234       -0.8022068293
 C        -0.8899374562       -0.0839110783       -2.3869311996
 C         0.3655872144       -0.5913742604       -3.0516518573
 C         1.6591678391        0.1921988782       -2.9708022610
 O        -0.2311135878       -1.2546696726       -0.2923199069
 O         0.4429376641       -1.6793755594       -3.6656252921
 C        -2.1105426200       -0.8876027452       -2.9106939640
 C        -1.1675337720        1.3738768996       -2.7443903837
 C         2.8132091652       -0.2557372997       -3.9121212584
 C         3.6619258223       -1.3122308207       -3.1966594331
 C         5.1212045967       -0.9336390477       -2.8165397236
 C         5.0815232644       -0.8751710885       -1.2423559685
 C         5.4145655006       -2.0967547033       -0.2384559815
 C         6.0894350648       -1.9851305223       -3.3763814988
 C         5.6780304229        0.4477599745       -3.2846623920
 O         3.2184984254       -2.3916493239       -2.8212432111
 O         4.8246477951        0.2258121971       -0.7779571772
 C         4.1141435439       -2.3382380701        0.5570988298
 C         4.2386893328       -3.2924972542        1.7439096441
 C         3.0224264690       -3.2707446897        2.7791507316
 C         1.8619891624       -4.0984708498        2.1171152243
 C         1.6502901559       -5.6232889824        2.1726974042
 O         5.0459843583       -4.1796737738        1.8299943410
 O         1.1683386315       -3.5498712938        1.2898355320
 C         3.5267518540       -3.9468179570        4.0247628327
 C         2.4942514229       -1.8942441956        2.9837305121
 C         2.2570525151       -6.3998991112        1.0622711769
 C         2.1217537844       -6.0227766580       -0.4031253616
 C         1.4856820084       -6.8744299550       -1.4839408835
 C         0.0326000789       -6.2484772684       -1.4377675566
 C        -1.2602475832       -7.1274696698       -1.4260073340
 C         2.0422516677       -6.4253798356       -2.8927884334
 C         1.5987436408       -8.4212176314       -1.3010303275
 O         2.6758341864       -5.0230164825       -0.8244585103
 O        -0.0466001862       -5.0510983574       -1.3675426558
 C        -2.5044439485       -6.2886670867       -1.0239936958
 C        -2.5004405476       -5.7251372278        0.3426157294
 C        -3.5879847694       -4.7846122073        0.7676837794
 C        -2.7898302981       -3.3676733917        1.1133935339
 C        -1.7597201741       -3.3338545790        2.2208419573
 O        -1.7191770416       -6.1024344871        1.1342654208
 O        -3.0607766503       -2.4011296492        0.4250636475
 C        -4.6868719420       -4.4143151501       -0.2773504201
 C        -4.2330167714       -5.2391136568        2.1120600666
 H        -6.1293677973        6.0893544769       -4.2193843321
 H        -7.4489977463        6.5074890345       -3.1023933555
 H        -5.8740652115        6.8736411939       -2.7290533861
 H        -5.0547224893        3.9493457949        1.5185452998
 H        -3.7660703274        3.8109501442        0.1888712849
 H        -7.8179120891        6.1214518150       -0.2284024404
 H        -8.0113904953        4.3686162333        0.4241974648
 H        -8.6423210754        4.8233736834       -1.1053636852
 H        -5.2439977284        2.5613854723       -0.9295821874
 H        -6.2767569810        2.9475078350        0.4707739625
 H        -7.0008093494        2.4253080867       -1.1117307881
 H        -4.0321490506        5.9659702943        2.1796517995
 H        -2.7307085269        4.9683885554        2.0688786548
 H         0.8294206223        7.1755665390        2.8441386142
 H         0.1476833969        5.8693319649        3.6746807620
 H        -0.8299546292        9.3719809074        0.8695892043
 H        -1.4394224967        8.5188324205       -0.5968650236
 H        -0.0639180862        7.8672565735        0.4821440844
 H        -3.9812681613        8.1989621786        2.4885413086
 H        -2.7584043865        9.3672308111        2.5841551881
 H        -3.6073183675        9.0882982041        1.0763881703
 H         1.3082025393        5.4065336545        1.3217098284
 H        -0.3575454251        5.5541538436        0.8448629718
 H        -0.7151488064        0.1612609828        1.7198034665
 H        -1.6078055230        1.7182811040        1.8244493710
 H         3.0906225336        3.4923821700        2.0942297009
 H         2.2805632742        3.9742678021        0.6111445018
 H         2.9599037104        2.3519670318        1.0248178351
 H         2.1267593701        1.4534609833        3.0579634491
 H         1.2722867273        2.5792747302        4.1010636089
 H         0.3738854177        1.3200463798        3.4092954792
 H        -2.6113088549       -0.0298136207        0.3942878205
 H        -2.2103539935        1.2542707645       -0.6296275785
 H         1.4678370231        1.3041718092       -3.1162561253
 H         1.9604143086        0.1752202665       -1.9728284553
 H        -2.3100338386       -0.7809987809       -3.9455009178
 H        -3.0237132149       -0.5127924451       -2.3739093158
 H        -2.1940695264       -1.9921800187       -2.5898990147
 H        -0.9032742624        1.5985417096       -3.8008089261
 H        -2.2012579977        1.6190364527       -2.5866553201
 H        -0.6010517656        2.1271755520       -2.1432361861
 H         3.4330494420        0.5528757394       -4.2537626592
 H         2.4148990518       -0.7647151683       -4.7334523809
 H         5.7369768185       -2.9153938538       -0.8750116271
 H         6.2726198749       -1.8383471435        0.4652607352
 H         5.4610510883       -2.8657777082       -3.3525554623
 H         6.9406445022       -2.1143291141       -2.8006386944
 H         6.5416163171       -1.9131243633       -4.3511182953
 H         5.0203034126        1.2028698693       -3.0223425070
 H         6.4963471668        0.6451059329       -2.6711509851
 H         6.1032690837        0.4605499801       -4.3327220585
 H         3.6794907725       -1.2804958296        0.8878979328
 H         3.4287595168       -2.7178829920       -0.2408490016
 H         2.1314277776       -5.9091777788        3.1035323262
 H         0.5964422939       -5.9146822377        2.1593486592
 H         3.5570140591       -5.0112923850        3.8255894231
 H         2.7790142342       -3.7763888850        4.7614722058
 H         4.4781864627       -3.4445157824        4.3337250523
 H         1.9898479302       -1.4346894956        2.1025546842
 H         1.8388003357       -1.7896743959        3.8056624163
 H         3.3291777872       -1.2309777935        3.1958504853
 H         2.0377169019       -7.5305398920        1.2592582546
 H         3.3811697146       -6.4257457694        1.2534677392
 H        -1.3616564465       -7.6628050322       -2.3226098928
 H        -1.1638528796       -7.8426944072       -0.6149965754
 H         1.6136768461       -6.9622718042       -3.7459809056
 H         3.0588474809       -6.3502430699       -2.9789055064
 H         1.5991276591       -5.4973428500       -2.9812353480
 H         2.7055281722       -8.5919251075       -1.3607490896
 H         1.4450014130       -8.7182257795       -0.3335565908
 H         1.1218669058       -9.0641604782       -2.1047388283
 H        -2.6240231853       -5.5101570667       -1.7312586451
 H        -3.4155510607       -6.9004165025       -1.2000944632
 H        -1.0956127893       -2.5131424951        2.1199040469
 H        -2.3790848326       -3.3009702816        3.1063392595
 H        -1.1401703341       -4.2525201894        2.2217915111
 H        -5.3536992363       -5.2891832613       -0.4656253928
 H        -4.1277314202       -4.2499885707       -1.2495947429
 H        -5.3628104449       -3.5970395973       -0.1905561594
 H        -4.8074856051       -4.4325510631        2.5659485266
 H        -4.9754032219       -5.9583927772        2.0687826247
 H        -3.5376486738       -5.6145110835        2.8154228058
 Na        1.3212990629       -2.9841809252       -1.4354430198
