155

 C        -6.4542047677        6.1014103728       -2.9915281176
 C        -6.3153925699        4.6827580166       -2.6044558400
 C        -6.4066654422        4.3972231771       -1.0469297642
 C        -5.2829599427        5.1735246719       -0.3648276095
 C        -4.0910862397        4.4440174936        0.4531311672
 C        -7.6745715447        5.1826607452       -0.4478621285
 C        -6.7115763059        2.8534243670       -0.8147369776
 O        -6.1744791280        3.7274476964       -3.3346105970
 O        -5.3790252733        6.3827289477       -0.3762013110
 C        -3.5134787801        5.4408002663        1.5169929017
 C        -2.5676710305        6.3568571883        0.7543637259
 C        -1.8892146205        7.5551539929        1.5184814929
 C        -1.3314042688        7.0886299369        2.8466792800
 C         0.1493457212        6.5255255484        2.7966651908
 O        -2.3353860666        6.1205294371       -0.4043185351
 O        -1.9296429094        7.1152641290        3.9200640695
 C        -0.8765547955        8.3602775147        0.5788465797
 C        -3.0912407711        8.5765256284        1.7911481519
 C         0.3842712548        5.2959966847        1.8026328881
 C        -0.0572958064        3.9410886344        2.2663005534
 C         0.9398190210        2.6543662338        2.0583267234
 C         0.2580397867        1.6558404084        1.0283383886
 C        -1.0462155794        0.9097689430        1.3655965032
 C         2.2464152932        3.0455153252        1.4356853755
 C         1.1680369587        1.9184391056        3.4014908235
 O        -1.0980196884        3.8098781056        2.8487533124
 O         0.7452618756        1.5987926114       -0.0667554458
 C        -1.7432465110        0.4884884393        0.0286938171
 C        -0.8907178255       -0.3970919227       -0.9507371213
 C        -0.9728392563       -0.1274277917       -2.5663366434
 C         0.3820601899       -0.6510923714       -3.0949042220
 C         1.5792072784        0.2322469220       -2.8533557676
 O        -0.2055089717       -1.2965565705       -0.5040913529
 O         0.5243272411       -1.7232322608       -3.6377360914
 C        -2.0641340848       -1.1245858222       -3.0020586533
 C        -1.2074578747        1.3319453296       -2.9832662849
 C         2.8163350367       -0.1601205581       -3.6781788319
 C         3.7611894538       -1.1736042705       -3.0522096024
 C         5.2250817029       -0.8102031107       -2.7089134975
 C         5.3234173899       -0.7834766030       -1.0428461795
 C         5.2745443693       -2.1622859724       -0.2274420377
 C         6.1461393001       -1.9189440739       -3.2283199421
 C         5.6341468017        0.6677794977       -3.2926900391
 O         3.3134823173       -2.3047429293       -2.8739331285
 O         5.2306245191        0.2937184190       -0.5266784045
 C         3.9880204098       -2.1594585674        0.5770349783
 C         4.1079561109       -3.1105586476        1.7136534673
 C         2.8186198005       -3.2267807388        2.6910348772
 C         1.8077636731       -4.1648539523        1.9446352781
 C         1.7539496815       -5.6861169319        2.1793444771
 O         4.9830623785       -3.9546163364        1.7856815541
 O         1.1488912899       -3.7333009236        1.0184922191
 C         3.3800985878       -3.8763690342        4.0388227159
 C         2.1855964609       -1.8641757380        2.9747969636
 C         2.6535915683       -6.4638960324        1.0898202823
 C         2.3555701333       -5.9161222423       -0.2859601615
 C         1.5794243347       -6.6700852768       -1.3264223636
 C        -0.0022950339       -6.1284267483       -1.5928586624
 C        -1.1373839908       -7.1108914736       -1.4022394148
 C         2.2320719274       -6.6470846368       -2.7403277011
 C         1.4600188175       -8.1827857382       -0.9937626148
 O         2.7076805741       -4.7767465410       -0.5514595129
 O        -0.2691330521       -5.0320901002       -2.0875785595
 C        -2.4151823582       -6.3370322438       -1.1779200423
 C        -2.3913664519       -5.6935897625        0.1882964143
 C        -3.4162737353       -4.6788269332        0.6113875644
 C        -2.8149025349       -3.2647121457        0.8998136389
 C        -1.8302000409       -3.1648110672        2.1367034120
 O        -1.4827018913       -6.0640706507        0.9973112107
 O        -3.0183737258       -2.3378162312        0.1735111536
 C        -4.6075733953       -4.5663953238       -0.4534247447
 C        -4.0886711933       -5.2960396317        1.9264137260
 H        -6.1339505981        6.3914679111       -3.9608806832
 H        -7.4870170702        6.3724113670       -2.9149700844
 H        -5.9312628880        6.8153099240       -2.2013066610
 H        -4.4576772746        3.5332714265        0.8723744222
 H        -3.2450486090        4.3434706140       -0.2276002055
 H        -7.8084094412        6.1335041963       -0.9091499641
 H        -7.5759094660        5.1456448964        0.6418035738
 H        -8.5788847039        4.6629903733       -0.7767278188
 H        -6.0133013204        2.2460041380       -1.3630463347
 H        -6.6621232643        2.6028463787        0.1689039273
 H        -7.6850167039        2.5886158062       -1.2501748784
 H        -4.3772316427        5.9260708256        1.9783860644
 H        -3.0948432506        5.0137060354        2.4182623480
 H         0.7577206515        7.3511499267        2.4270821622
 H         0.6079947319        6.2286540124        3.7788949030
 H        -0.6959949459        9.3000159704        1.1653162228
 H        -1.4097688130        8.6086974850       -0.2865081803
 H         0.1002067759        7.8803390330        0.4382520913
 H        -4.0880325071        8.1764991562        1.9949266745
 H        -2.8164347770        9.1148654825        2.7083078386
 H        -3.1537000892        9.3674740058        0.9580448153
 H         1.4441283248        5.2096252079        1.5252513664
 H        -0.1690178691        5.5135151376        0.8926669246
 H        -1.0692306887       -0.0073478259        1.9724909538
 H        -1.6629308189        1.7469297042        1.8474322764
 H         2.8001003443        3.8637275578        1.9321424595
 H         2.0535821235        3.3656880105        0.3979229698
 H         3.0033225347        2.2446670825        1.5397085996
 H         1.8125494974        1.0818970751        3.3765129160
 H         1.5662092723        2.5918567505        4.1165780570
 H         0.2420816521        1.6664414784        3.8369224821
 H        -2.6900469827       -0.0480654938        0.0301973359
 H        -2.0159443866        1.3875397300       -0.5759216454
 H         1.3676711801        1.2421110376       -2.9927258678
 H         1.9192187401        0.2285653806       -1.7570438009
 H        -2.2959017681       -0.9414629129       -4.1270408053
 H        -3.0529703989       -1.1692147744       -2.5810223066
 H        -1.6809484700       -2.0670758033       -2.9395501343
 H        -0.9106753337        1.5371186599       -3.9883433907
 H        -2.1704475876        1.8147542038       -2.8406561732
 H        -0.5145549584        1.9225858700       -2.4193306531
 H         3.4158594187        0.7681347837       -3.8304945688
 H         2.6115062916       -0.5811399494       -4.7027035044
 H         5.4668835489       -3.0437463342       -0.8206643232
 H         6.0898204485       -1.9747968752        0.4382233897
 H         6.0565144282       -2.8473954551       -2.7085449041
 H         7.2138544486       -1.5079979871       -3.2882289760
 H         6.0194619188       -2.1710904291       -4.2646857742
 H         5.1948045354        1.4752823609       -2.6615460252
 H         6.7283159485        0.8354581383       -3.4183474553
 H         5.3905332467        0.6969268792       -4.3033108202
 H         3.7086038680       -1.2010219352        0.8570564141
 H         3.2592274015       -2.5317425280       -0.0687896606
 H         1.9981276130       -5.9630024679        3.2161898847
 H         0.7773258934       -6.1220167882        1.9233633601
 H         4.1416865297       -4.6208575212        3.8933156270
 H         2.5558043254       -4.3292723725        4.6595026896
 H         3.7430045278       -3.0163883812        4.4539028593
 H         1.6378521256       -1.4954423694        2.1590487664
 H         1.4456716540       -1.9402420164        3.8152651649
 H         2.8807863588       -1.0927012263        3.2398642529
 H         2.4114970914       -7.4698147558        1.2554400114
 H         3.6992542295       -6.3824388441        1.2453801802
 H        -1.1894247174       -7.5506948053       -2.4394993129
 H        -1.0237345310       -7.9528333433       -0.7150521874
 H         1.7375590058       -7.3918679696       -3.3581356257
 H         3.3216035606       -6.9954578434       -2.6243971429
 H         2.1617175335       -5.6585423682       -3.3197927024
 H         2.3225130323       -8.8226502897       -0.8036000206
 H         0.8394275582       -8.2305172025       -0.0275340017
 H         0.8674693014       -8.5565782497       -1.7571006044
 H        -2.5832440084       -5.5890298903       -2.0109031369
 H        -3.3034506954       -6.9385467808       -1.3121429266
 H        -1.5764663584       -2.0779811089        2.3037371270
 H        -2.2224756640       -3.6860075743        3.0078270509
 H        -0.9238337466       -3.6511298877        1.8580670055
 H        -5.1602674029       -5.4332379102       -0.7344002135
 H        -4.2994422492       -3.9897728945       -1.3002735096
 H        -5.3210370551       -3.9484399729        0.0580260155
 H        -4.9351571012       -4.8148712216        2.4246854310
 H        -4.4555282911       -6.3229716579        1.8331217695
 H        -3.3141677225       -5.4367265933        2.6499920516
 Na        1.1597250755       -2.9978634339       -1.5652536503
