155

 C        -6.5634092994        6.1368856314       -3.2387466591
 C        -6.5189457909        4.6751069894       -2.6246801123
 C        -6.6835622777        4.3946074521       -1.0844918990
 C        -5.3845149151        5.0805514278       -0.2468679469
 C        -4.2229979116        4.2649350732        0.4028671281
 C        -8.0446578663        5.0990728375       -0.5181046011
 C        -6.6709522505        2.9001917418       -0.7622958252
 O        -6.1929439591        3.7270488004       -3.2977844387
 O        -5.3094248337        6.3005633214       -0.2464267096
 C        -3.4207266845        5.1676641757        1.3049381818
 C        -2.4725979117        6.2536154020        0.6990238126
 C        -2.0052818569        7.5582195533        1.5814803750
 C        -1.3571460657        6.9666745447        2.9485087425
 C         0.1038110303        6.4019888380        2.8882030399
 O        -1.9996660913        6.1453023688       -0.4363656184
 O        -1.9445639907        7.0084281195        4.0258014985
 C        -0.8884886737        8.2244570634        0.7181518902
 C        -3.0313471738        8.5910052777        1.9305974048
 C         0.4485824986        5.3003842825        1.8941670374
 C        -0.0196063642        3.9317928625        2.3468127271
 C         0.8572413118        2.6292793689        2.1008801585
 C         0.1912142125        1.6587598636        1.0728515451
 C        -1.0519659624        0.7764181343        1.3698084984
 C         2.3630780649        2.9073275998        1.6681022425
 C         0.8833748647        1.9570814604        3.5273417509
 O        -1.0514216163        3.7784324315        3.0009485569
 O         0.6982406557        1.5726744926       -0.0506647406
 C        -1.7829152058        0.3459577225        0.0250977696
 C        -0.8927053447       -0.4181024331       -0.9602536721
 C        -0.9863789655       -0.2446529260       -2.4921830485
 C         0.4311504238       -0.6593078204       -3.0166837044
 C         1.6234070505        0.2578926964       -2.7997430513
 O        -0.1035081402       -1.2472507481       -0.5546918550
 O         0.6318442688       -1.7573754177       -3.5218387439
 C        -2.0893168611       -1.2358302535       -3.0551628080
 C        -1.4189730585        1.2010401569       -3.0313627623
 C         2.8797218722       -0.0824937673       -3.5844290034
 C         3.7642230526       -1.0927214074       -2.8634103625
 C         5.3462094405       -0.7204450311       -2.6128645218
 C         5.3897492190       -0.6712316831       -1.0157294475
 C         5.0278933216       -2.0193823985       -0.3239771119
 C         6.2558850374       -1.8811180739       -3.1950756481
 C         5.8082251996        0.6303036384       -3.1398336685
 O         3.2855044590       -2.1291057319       -2.4510876585
 O         5.6171684033        0.3709271443       -0.4444418807
 C         3.9495075879       -1.8423393262        0.7723745271
 C         3.9894675680       -3.0327672303        1.7002117916
 C         2.6472225637       -3.2636135598        2.6347390798
 C         1.6871998810       -4.1494835082        1.8152559898
 C         1.8818076888       -5.6605467597        2.0237279633
 O         4.9855635995       -3.7230632826        1.7688364998
 O         0.9175410645       -3.6488339378        0.9929465811
 C         3.0982848684       -3.8488047803        4.0142197612
 C         1.9387440770       -1.9566479004        2.8808997782
 C         2.8705608705       -6.2471064839        0.9379053508
 C         2.3964675984       -5.7720431382       -0.3711911974
 C         1.6284745035       -6.7581120260       -1.3125854110
 C         0.2700088276       -6.1112552170       -1.6971426387
 C        -1.1092823251       -7.0437736705       -1.6820004278
 C         2.5062333505       -6.7000044724       -2.6073743121
 C         1.4385449794       -8.1192701662       -0.7432547251
 O         2.6488437774       -4.6414233646       -0.7689725199
 O         0.1484053913       -5.0542539661       -2.2700912585
 C        -2.4229333746       -6.3265519081       -1.2814125313
 C        -2.2882665777       -5.6976052232        0.1382131197
 C        -3.5011862212       -4.7116835673        0.6271429622
 C        -2.8647254668       -3.2622492221        0.8194748288
 C        -1.9276425017       -3.0014785466        1.9715311441
 O        -1.2760739974       -5.8236298940        0.7657128277
 O        -3.1006496621       -2.3907858923       -0.0597316310
 C        -4.5885107961       -4.5581090249       -0.5223307923
 C        -4.0862626294       -5.2567753732        1.8624256311
 H        -6.0006677944        6.1731574776       -4.2082164997
 H        -7.5581008724        6.5769161092       -3.5017842804
 H        -6.1137827485        6.8391501406       -2.6185379535
 H        -4.7844688028        3.5474445673        1.0474550837
 H        -3.5760007061        3.8075893923       -0.3411679970
 H        -7.9352817189        6.1564050407       -0.7801398048
 H        -8.1026562074        4.9259102880        0.5361954896
 H        -8.8991503942        4.8860988928       -1.1510943599
 H        -5.6689269980        2.6167270021       -1.1089580733
 H        -6.8824332226        2.5984634142        0.3619201785
 H        -7.3487068348        2.3530942164       -1.3841865197
 H        -4.1155023216        5.5348682779        2.0920975182
 H        -2.8405131634        4.4897169090        1.9816875332
 H         0.8544340210        7.1651933664        2.5703759968
 H         0.4469899984        6.0582307837        3.8411119416
 H        -0.2140551175        8.7808658799        1.3042423549
 H        -1.2877583459        8.8278059047       -0.1333005433
 H        -0.3474248845        7.3838567903        0.3292277997
 H        -3.7770382011        8.0151728132        2.4876144066
 H        -2.6713798272        9.4290974876        2.5595180414
 H        -3.5004553203        9.0579523142        1.1069258485
 H         1.5364028179        5.2782757688        1.8172200065
 H         0.0305773095        5.4969426067        0.8910388670
 H        -0.6596867661       -0.1038438821        1.8849419219
 H        -1.8713605404        1.1483116076        1.9465262953
 H         2.8231722007        3.5555817425        2.4536224980
 H         2.5290806643        3.4325219210        0.7416530188
 H         2.8981762116        1.9564462529        1.6179972394
 H         0.9876121959        0.8591484109        3.4152016722
 H         1.7405859507        2.2872184193        4.1494028012
 H        -0.0347560045        2.1317192906        4.1877205427
 H        -2.6822373295       -0.3030811421        0.0441297384
 H        -2.1670790948        1.2343314199       -0.4470174232
 H         1.3234295498        1.2736010802       -3.2940853775
 H         1.7343039393        0.5140519410       -1.7763428408
 H        -2.2806552061       -1.2750775626       -4.0682297551
 H        -3.1034372026       -0.9970228447       -2.7220598487
 H        -1.8714419643       -2.2927277020       -2.6707352859
 H        -1.1863069396        1.2600628975       -4.1321085514
 H        -2.5169995976        1.3816417702       -3.0189718862
 H        -0.9976504471        2.1627458320       -2.6509722861
 H         3.4455295041        0.7857435844       -3.8273505207
 H         2.5418065044       -0.4994922637       -4.5425537734
 H         4.6100238043       -2.5676283328       -1.2069199201
 H         5.9411205940       -2.5106588396        0.0679108238
 H         6.0671496116       -2.9246816416       -2.7847316944
 H         7.2915063945       -1.6922280702       -3.2559682919
 H         5.9689287062       -1.9263997993       -4.2864581117
 H         5.1929643947        1.4575161473       -2.7857031440
 H         6.8412580451        0.8177401425       -2.8872758782
 H         5.9186584899        0.5775114657       -4.2645434950
 H         4.2634145049       -0.9080479060        1.3841037448
 H         2.8898708969       -1.6337346776        0.2879221453
 H         2.1974674530       -6.0917935007        2.9913897613
 H         0.8516529094       -6.0288701554        1.8437431638
 H         3.8132731559       -4.6580756160        3.8089565590
 H         2.2459277479       -4.2601731919        4.4404924250
 H         3.6012016914       -3.0263099516        4.6426571809
 H         1.5388437900       -1.4549831530        1.9537870502
 H         1.0794676011       -2.1101456715        3.4735314305
 H         2.5798798148       -1.1974551317        3.3935715625
 H         2.9156820756       -7.3611741217        1.0514060246
 H         3.8938342329       -5.7324164121        1.1584547063
 H        -1.2382778517       -7.5956078304       -2.6299542071
 H        -0.9399141801       -7.8345891700       -0.9284716926
 H         1.8326051126       -6.9832103007       -3.4419898072
 H         3.3381445475       -7.3601547008       -2.6140215198
 H         2.8037589069       -5.6982510570       -2.7929416789
 H         2.4061151165       -8.6016980922       -0.6853848914
 H         0.9394883000       -8.1505713993        0.1849347802
 H         0.7735366092       -8.7282603977       -1.4755965821
 H        -2.7584780518       -5.6188107601       -2.0234812519
 H        -3.3334871948       -6.9747815608       -1.3203923303
 H        -1.9854687109       -1.9841830022        2.3053350211
 H        -2.0869352647       -3.7453587895        2.7586023438
 H        -0.8720738064       -3.1952947071        1.5833409460
 H        -4.9198454473       -5.5692467901       -0.8785673404
 H        -4.1316029956       -3.9809179161       -1.3472450488
 H        -5.5492113813       -3.9976145624       -0.2051973525
 H        -4.7087769699       -4.4643972013        2.3164516072
 H        -4.7475922953       -6.1612240601        1.9016565862
 H        -3.3068307249       -5.5241521949        2.6536485617
 Na        1.1370512144       -3.1505328442       -1.7059119213
