155

 C        -6.9528999917        5.7651915554       -3.5174435686
 C        -6.4481116747        4.7092920446       -2.5618520645
 C        -7.0035004889        4.4566029600       -1.0652370070
 C        -5.9243444489        5.0725365992       -0.1589707217
 C        -4.5132054080        4.2326986681        0.1152599320
 C        -8.2952429318        5.3067039634       -0.8397369641
 C        -7.3412781694        2.9258081509       -0.7306238041
 O        -5.6235961163        3.9144513910       -2.9724794309
 O        -6.0129005397        6.2169532918        0.3394936260
 C        -3.6384597085        5.0115886541        1.1432054532
 C        -2.3520206105        5.6515857248        0.7089007384
 C        -2.0458192388        6.9232061662        1.5681930904
 C        -1.4642761132        6.2744478623        3.0304530131
 C         0.1472651570        6.2302853429        3.1669103017
 O        -1.6086946372        5.1637606099       -0.1176897844
 O        -2.1505605846        5.9351483968        3.9357335004
 C        -0.9258565996        7.7439889273        0.9102500129
 C        -3.2309944871        7.8946668166        1.8685491496
 C         0.6442583966        5.0930466124        2.2900938501
 C        -0.1548423164        3.7502819280        2.5568913952
 C         0.6164326921        2.3825291286        2.4948530486
 C         0.2216950508        1.5643355310        1.1558417953
 C        -1.0727531746        0.8358121010        1.0565407879
 C         2.2156618551        2.6109290343        2.5685653574
 C         0.1900481956        1.6885879102        3.8203849849
 O        -1.3327498185        3.7038784988        2.7813956021
 O         1.0285988926        1.6280616172        0.2808752019
 C        -1.6014571281        0.6625011577       -0.3045026423
 C        -0.6946204209       -0.3246841897       -1.1018293478
 C        -0.7962271050       -0.4275093977       -2.6562385107
 C         0.6147698431       -0.5478703782       -3.1457511025
 C         1.5025147841        0.8033009002       -3.0381568563
 O         0.1737762992       -0.9974241187       -0.5766422221
 O         1.1731190819       -1.5822957959       -3.4136090177
 C        -1.6339106658       -1.7228464108       -2.8367089747
 C        -1.6512489238        0.7234569737       -3.3246592991
 C         3.0065124757        0.5237464692       -3.1799551085
 C         3.5814849784       -0.2975353798       -2.0909540482
 C         5.2240023404       -0.5227214143       -2.0548682419
 C         5.5415341291       -0.4109195083       -0.4735130614
 C         5.6130117258       -1.5619383142        0.4682448043
 C         5.4337969996       -1.9443988102       -2.5973841245
 C         6.0033614730        0.5363320376       -2.8788465766
 O         2.8756070136       -0.9118919010       -1.2872214252
 O         5.8836990575        0.6733863577       -0.0488681984
 C         4.2636235166       -1.4567450861        1.2913546421
 C         4.0122827541       -2.7790201212        2.1448075590
 C         2.3134127737       -3.0778595264        2.5480688666
 C         1.8010072577       -3.9855035007        1.3763877993
 C         1.9934531880       -5.5040833395        1.4669861185
 O         4.8673725613       -3.4888895460        2.6095894937
 O         1.1276511327       -3.4977677523        0.4527529329
 C         2.5088862976       -3.6599921418        3.9627460157
 C         1.3302252567       -1.9039619386        2.7733671441
 C         3.2363034262       -5.8111286046        0.6266644514
 C         2.9302671066       -5.6992231496       -0.9230134092
 C         2.0337709577       -6.6553396185       -1.7260617329
 C         0.5874416188       -5.9909499780       -1.9022086805
 C        -0.7022238438       -6.9153304705       -1.9288789454
 C         2.6037737645       -6.8240840801       -3.1766406662
 C         1.8983850823       -8.0491779087       -1.0340576425
 O         3.4106233385       -4.6896299514       -1.4467541479
 O         0.5176952959       -4.8493611130       -2.2407265434
 C        -2.0155091879       -6.2154786995       -1.8478098610
 C        -2.1723914460       -5.5207452440       -0.3105372201
 C        -3.5001424994       -4.9156712375        0.0543964500
 C        -3.3607015476       -3.3607818539        0.2700990842
 C        -2.3493284051       -2.8732897672        1.3448516819
 O        -1.1565674803       -5.4448971847        0.3617243333
 O        -4.0272385092       -2.5300559844       -0.3029126696
 C        -4.7445082926       -5.0716635118       -0.9807999576
 C        -4.1069925167       -5.5064565098        1.3378977534
 H        -6.4598219653        5.7411534380       -4.4882489014
 H        -7.9949616521        5.8562680838       -3.7029474114
 H        -6.6770264832        6.8305853295       -3.0711179096
 H        -4.7640020241        3.1572482299        0.2770199636
 H        -3.9238212420        4.2306877900       -0.7821563493
 H        -7.9336878571        6.3077064275       -0.7604384066
 H        -8.8831167496        5.0334844555        0.0160522737
 H        -9.0058319750        5.0985645465       -1.6720866466
 H        -6.4701462123        2.3883959817       -1.0555248805
 H        -7.6382138960        2.6764452327        0.2218826998
 H        -8.0519310695        2.6967961139       -1.4829713350
 H        -4.4772399229        5.6732937098        1.5891904457
 H        -3.3411779836        4.3419055759        1.9749633588
 H         0.6793613832        7.1786744035        2.8892984405
 H         0.3866177864        6.0148950662        4.2185870396
 H        -0.2372479822        8.2783729881        1.6122801179
 H        -1.3429224460        8.5036703239        0.2342789044
 H        -0.3323197507        7.0405519996        0.2539412463
 H        -4.1387949304        7.3511200347        2.0042277604
 H        -3.1877682444        8.5780634669        2.7348620309
 H        -3.3295470664        8.3854101811        0.8323669841
 H         1.7156963031        4.8298895760        2.3816370509
 H         0.5464941705        5.3651359946        1.2387751208
 H        -0.9414245469       -0.1027892402        1.6393942715
 H        -1.7972311214        1.2986423659        1.7660473625
 H         2.5808227117        3.2268006315        3.4864746139
 H         2.5314747967        3.0548228460        1.6127290467
 H         2.6387983910        1.6184540565        2.7000766971
 H         0.5618868419        0.6945783610        3.8050775298
 H         0.6017260664        2.1806570160        4.6530753504
 H        -0.9061478889        1.6462752458        3.9047920962
 H        -2.6407102562        0.2535541408       -0.5112097378
 H        -1.5133087574        1.6498328733       -0.7284018258
 H         1.2705520254        1.6887700351       -3.7299842832
 H         1.3119600613        1.1148568063       -2.0294985541
 H        -1.6267838272       -2.2655588775       -3.8494977407
 H        -2.6438758558       -1.5974834379       -2.5239330952
 H        -1.3349812506       -2.5060397293       -2.2410714371
 H        -1.8086330013        0.5677057044       -4.3657878050
 H        -2.6430929668        0.8877132201       -2.9639168508
 H        -1.3129926429        1.6943923578       -3.3282841136
 H         3.5619685051        1.4747565832       -3.1347551003
 H         3.2392166383        0.1317604454       -4.2573911833
 H         5.6828201977       -2.5506178687       -0.0182243438
 H         6.3973088627       -1.5510533336        1.1498048657
 H         4.7676258590       -2.7023778107       -2.1686849825
 H         6.4661083439       -2.3225272325       -2.4405075476
 H         5.3010894105       -1.8521413320       -3.6558151630
 H         5.8764153277        1.5230913932       -2.3819554118
 H         7.0675093782        0.2775098013       -2.7213323168
 H         5.6611412236        0.6860875718       -3.8297221346
 H         4.5459126154       -0.6928533157        2.0302932833
 H         3.2987666286       -1.1378825095        0.7867296098
 H         2.2312767477       -5.7563300141        2.5201794317
 H         1.0564941086       -6.0158445709        1.3001938025
 H         3.1560398591       -4.5204937780        3.8889455228
 H         1.5808638976       -3.9067928586        4.4627662421
 H         2.9522677310       -2.8560213570        4.5389731020
 H         0.9081747660       -1.5897949849        1.8310341136
 H         0.5413287542       -2.1979626003        3.3940698085
 H         1.8291101205       -0.9930758401        3.1745357064
 H         3.5242812549       -6.7828354021        0.9000087279
 H         4.0571734001       -5.1044830013        0.8782550240
 H        -0.5555742883       -7.5347623161       -2.8925594138
 H        -0.5785277836       -7.6759937048       -1.1455578750
 H         1.8210390932       -6.9351509043       -3.9032876182
 H         3.1127897730       -7.8335289227       -3.1047920167
 H         3.3797384105       -6.0705775953       -3.5294637470
 H         2.7993421946       -8.5258427110       -0.8204801383
 H         1.2728094322       -7.9658686556       -0.0813779123
 H         1.4147619223       -8.7000759164       -1.7522831082
 H        -1.9651002982       -5.5629964804       -2.7497855995
 H        -2.8723160041       -6.9128450467       -1.9832862824
 H        -2.5417293283       -1.8694634292        1.6463155494
 H        -2.3277657961       -3.4297404716        2.2706030107
 H        -1.3236628745       -3.0049707110        0.9628700674
 H        -5.0355623079       -6.0628239491       -0.8056913294
 H        -4.4655785653       -4.9416696813       -1.9896451081
 H        -5.5380170355       -4.3889789619       -0.6715031624
 H        -4.8084138001       -4.8450943541        1.7505129305
 H        -4.5607884891       -6.4826923190        1.2896794570
 H        -3.3544842004       -5.3763550909        2.0593558632
 Na        1.7087857146       -2.8674721819       -1.7347974111
