155

 C        -4.9845344677        2.9772089887       -3.1329849370
 C        -5.7183810378        2.8124458297       -1.8090334992
 C        -6.8391946500        3.8068488311       -1.4291128418
 C        -6.3341752474        4.6407469489       -0.3209399001
 C        -6.0207226945        3.8419447241        0.9836223416
 C        -7.3272453834        4.6713460912       -2.6386980765
 C        -8.0475409943        2.9250244386       -0.9591798141
 O        -5.6077003035        1.8449635593       -1.0316484540
 O        -6.1818668287        5.8043276448       -0.4608307057
 C        -5.0868884242        4.6709261037        1.8812821536
 C        -3.9089271778        5.1043701339        0.9292487187
 C        -2.9827282225        6.3324722174        1.4134872632
 C        -2.6927878094        5.9251688595        2.8879503270
 C        -1.3478478215        5.2415066759        3.3199802796
 O        -3.4946798788        4.4247061863       -0.0238690199
 O        -3.6081358252        5.9988606279        3.7048569621
 C        -1.9049128931        6.4990451689        0.4079761342
 C        -3.9632364350        7.5598567701        1.5103440340
 C        -1.1335649486        3.9629827031        2.5134085282
 C        -1.9874788132        2.8841876666        3.2822032823
 C        -1.7370248131        1.3394663910        2.9787780279
 C        -1.5652712129        1.2343817967        1.4981030483
 C        -2.5266705316        0.4299429797        0.5405109575
 C        -0.4933774869        0.7618350523        3.5887961086
 C        -3.0001899496        0.4824592937        3.4212526295
 O        -2.9318201341        3.1379565082        4.0276902483
 O        -0.6701129061        1.8827804673        0.9436907666
 C        -2.1459187256        0.7029214670       -0.8789187876
 C        -0.6772228691        0.1093253623       -1.2648526775
 C         0.0012930933        0.8587678213       -2.5889429744
 C         1.5405278486        0.9759511512       -2.2297913460
 C         2.1051738830        2.0767192356       -1.2422238389
 O        -0.2846349142       -0.8438557003       -0.6821592670
 O         2.2580722302        0.0195006726       -2.5010578616
 C        -0.0864098898        0.1815007361       -4.0184489222
 C        -0.6160971347        2.3687424273       -2.6927057374
 C         3.4219733845        2.0184950250       -0.4530767976
 C         3.8430855745        0.6283234350        0.0503787324
 C         5.3867377037        0.4340741205        0.3567326768
 C         5.3539888983        0.1832743939        1.9272403125
 C         5.4472499065       -1.1357100083        2.7459085103
 C         5.9187963964       -0.8764009451       -0.3471050160
 C         6.2830774020        1.6399801478        0.1232765531
 O         3.0490071001       -0.2308324825        0.3596226468
 O         5.1664702032        1.2384752681        2.5583459090
 C         4.0570902928       -1.9485174367        2.6985548422
 C         4.2544832128       -3.4845276030        2.6996292056
 C         2.8292338222       -4.4267603123        2.7989641315
 C         2.1517737363       -4.2610959331        1.3703897232
 C         1.9399396890       -5.3783976276        0.3433508041
 O         5.3300975305       -3.9181133969        2.3279330896
 O         1.5789601541       -3.1770689789        1.2487634949
 C         3.0731518421       -5.8110010345        3.2516762034
 C         2.0143862715       -3.7657547838        3.9442024579
 C         3.0465444219       -5.6812753577       -0.5877024621
 C         3.3900083660       -4.4318022040       -1.5427579333
 C         3.2081043848       -4.6000814356       -3.0884386236
 C         1.7276941226       -4.0074187466       -3.4113756125
 C         0.8135531858       -4.4551668012       -4.6734928793
 C         4.2434156184       -3.7021088371       -3.9864144874
 C         3.2442996662       -6.0602705547       -3.5640119465
 O         3.8361458725       -3.4083873990       -1.1473814259
 O         1.3381628588       -3.0312732076       -2.7464291887
 C        -0.6486681058       -4.7429888975       -4.3111223907
 C        -0.6785117989       -5.4331750757       -2.9922611406
 C        -2.0546826294       -5.9963886073       -2.4279490061
 C        -2.6211571884       -4.6500057295       -1.5554200289
 C        -1.7113650043       -3.9856903374       -0.4946220770
 O         0.3328523668       -5.4351154260       -2.2935252989
 O        -3.7851102733       -4.2668690759       -1.6267476408
 C        -3.0626331294       -6.5688093380       -3.4217404709
 C        -1.6784067848       -7.0441773743       -1.3543195096
 H        -4.9770772498        4.0436900544       -3.3519084906
 H        -3.8118983289        2.7276166001       -3.1466133443
 H        -5.4420887467        2.3699118465       -3.9131498063
 H        -7.0197759822        3.7066744274        1.4772116830
 H        -5.7949418870        2.8124221735        0.6630926746
 H        -6.5037928888        5.2865863659       -3.0363718863
 H        -8.0453027815        5.3665042861       -2.1971010821
 H        -7.6707069908        3.9899610918       -3.3717355723
 H        -7.6558537014        2.1807000184       -0.1411604664
 H        -8.7305460738        3.6094010162       -0.5147689474
 H        -8.5631790487        2.3531028012       -1.7436668627
 H        -5.4802157133        5.4974708786        2.3297366224
 H        -4.5299590038        4.0445896318        2.5782282492
 H        -0.4669732094        5.8366123555        3.2268790585
 H        -1.5560030432        5.1099031973        4.3940492095
 H        -0.9972575717        5.8843674322        0.6584054967
 H        -1.6925513340        7.5863596704        0.3223601020
 H        -2.2600614726        6.1196577256       -0.5442722006
 H        -3.5247577561        8.5327013150        1.7461815191
 H        -4.5614265564        7.6721626136        0.5438974864
 H        -4.6579045777        7.3141892340        2.3568313093
 H        -0.1042304166        3.7372256482        2.4969818118
 H        -1.4971228824        4.0792079096        1.4789588717
 H        -2.6088261746       -0.6643082656        0.7067270424
 H        -3.5974226069        0.7476569532        0.5330304261
 H        -0.5096485357        0.9891743070        4.6383368899
 H         0.3994532472        1.0887930748        3.1786911455
 H        -0.3703414990       -0.3206674374        3.4224196478
 H        -3.0788228023       -0.5159086611        3.0026667693
 H        -2.9711664029        0.2376338465        4.4659826177
 H        -3.9091387427        1.0696724748        3.2379554321
 H        -2.8090227284        0.3019356971       -1.6594768492
 H        -2.1378877393        1.8093571780       -0.9507429729
 H         2.2028920578        2.9318347625       -1.8477491786
 H         1.2947935759        2.3597673143       -0.4586328226
 H         0.2011000228        1.0783126218       -4.6889646799
 H        -1.0553843031       -0.2487336822       -4.2726588021
 H         0.7319449649       -0.4952375752       -4.0337345770
 H         0.1377052688        2.8156093253       -3.3789795408
 H        -1.5774134024        2.2219953821       -3.1976535756
 H        -0.7331120193        2.7941116640       -1.6704780100
 H         3.3409360371        2.6502591191        0.4181314360
 H         4.1714793034        2.4334173328       -1.1090026749
 H         6.1650860107       -1.9387968590        2.3452036155
 H         5.6873935577       -0.8056873419        3.8768173763
 H         5.0929399497       -1.6019588505       -0.5897964398
 H         6.6165504392       -1.3036729892        0.3285684992
 H         6.4242700859       -0.6910559104       -1.3089968624
 H         5.8497592683        2.5720985802        0.5429574457
 H         7.2263166394        1.5139546030        0.6584909714
 H         6.5411817985        1.8443273972       -0.9650030695
 H         3.4250005947       -1.4826600390        3.5070365329
 H         3.6098557897       -1.7491992578        1.7114056302
 H         1.6100449441       -6.2450544944        0.8145320786
 H         1.0735053546       -5.2315381417       -0.2648344195
 H         3.6831061218       -6.4322597241        2.5733333969
 H         2.1082537296       -6.2320293487        3.3667202164
 H         3.5910829097       -5.9236308713        4.2752705511
 H         1.7477950209       -2.7658189751        3.5829301431
 H         1.0961588460       -4.2213091352        4.2436340177
 H         2.6241573565       -3.7389384899        4.8073362766
 H         2.7864196401       -6.6237310963       -1.0914690214
 H         4.0322367818       -5.8373950099       -0.0897801476
 H         0.7957345987       -3.6716923466       -5.4908919648
 H         1.2643528124       -5.3082173511       -5.1153338014
 H         3.9716888085       -3.7608159531       -5.0618502126
 H         5.2601022370       -4.1276165243       -3.7301824995
 H         4.2110953149       -2.6067529305       -3.6109113310
 H         4.1578213016       -6.5033001100       -3.4663664482
 H         2.4879489114       -6.7391655533       -3.1067649525
 H         3.0909106232       -6.1229313489       -4.6586877883
 H        -1.1507638274       -3.7765638444       -4.1281163362
 H        -1.1224752707       -5.2986837525       -5.0778834164
 H        -1.0607040553       -3.2820545624       -0.9253644675
 H        -2.2776408148       -3.3892807231        0.2656480636
 H        -1.0223194540       -4.6583594711       -0.0115354930
 H        -4.0440356247       -6.4645328079       -3.0804589605
 H        -2.9350166505       -7.6468274533       -3.5183454916
 H        -2.9998669486       -6.1600911410       -4.4282665503
 H        -2.5937000820       -7.3925919875       -0.9467164107
 H        -1.1840052778       -7.8088523514       -1.9712735198
 H        -1.0177125808       -6.6848030290       -0.5528746154
 Na        1.9546131591       -1.9706452252       -0.8322377424
