155

 C        -5.1149395001        2.3127762404       -3.2882167756
 C        -5.5322938461        2.4987676912       -1.8425039155
 C        -6.7503787403        3.4464773402       -1.5843781002
 C        -6.4861483296        4.4364245295       -0.3418658886
 C        -6.2541557838        3.8784338764        1.0630419793
 C        -7.0801859693        4.4181229185       -2.8122652781
 C        -7.9297567954        2.5047663386       -1.2194389842
 O        -4.9258551493        1.9973969198       -0.8676487719
 O        -6.4296001039        5.6011552667       -0.5369357632
 C        -5.2102592611        4.6451320252        1.9103042905
 C        -3.9294791216        4.9827735152        1.0994596055
 C        -3.1396558655        6.2569973811        1.4817859079
 C        -2.7635186235        6.1183467068        3.0854021002
 C        -1.4281564273        5.4154372318        3.5190059721
 O        -3.5918003850        4.3598370839        0.1197485439
 O        -3.5453555271        6.4932047902        3.8943170391
 C        -1.9323635395        6.3479670196        0.5446695908
 C        -4.1660199662        7.4761659927        1.4332026574
 C        -1.1146732083        4.0184846947        2.9935978706
 C        -2.2943996750        2.9261778006        3.3821730300
 C        -2.1325178702        1.4807856572        2.8895626211
 C        -1.7054267740        1.2196665442        1.4030168496
 C        -2.6462876113        0.2942343035        0.5730874809
 C        -0.9002459358        0.9444311563        3.7258509889
 C        -3.3504669728        0.6280606928        3.2995211729
 O        -3.2029385560        3.2178262209        4.0764986426
 O        -0.6601762055        1.6562535626        0.8987855078
 C        -2.2862345280        0.4717692261       -0.8509491550
 C        -0.7368759446        0.1830893191       -1.1725897880
 C         0.0109922490        1.0558739647       -2.2010161156
 C         1.5050755296        1.1062225875       -1.7167294743
 C         1.9601107385        2.1658894291       -0.6835051431
 O        -0.2012916192       -0.8455037787       -0.7825149675
 O         2.4113608856        0.4640250496       -2.3015588812
 C         0.0020726026        0.2237205766       -3.5241534216
 C        -0.4548686287        2.4863417522       -2.5402611572
 C         3.5089462743        2.1298490031       -0.3657213200
 C         3.9210725489        0.8055118233        0.3141933822
 C         5.4037045266        0.4641583197        0.6570961992
 C         5.4083644771        0.1437677024        2.3523044916
 C         5.6015812842       -1.3723550602        2.7434698169
 C         5.8259717136       -0.6943906846       -0.2665030500
 C         6.3179143850        1.7001954662        0.5446345246
 O         3.0694755819       -0.0060132175        0.5656437608
 O         5.1371444274        1.0178575750        3.1429141325
 C         4.1695584673       -2.0076746657        2.6212038159
 C         4.2046057206       -3.4852853420        2.4354064197
 C         2.6996498433       -4.4206861129        2.6218040537
 C         2.0888977419       -4.1917633613        1.1960426967
 C         2.0920385739       -5.3567113236        0.2249567272
 O         5.2420348813       -4.0438064887        2.2890239350
 O         1.7505404120       -3.0348385855        0.8920673083
 C         2.9871000310       -5.8266954935        3.0495725963
 C         1.7717772520       -3.7872678340        3.7443015345
 C         3.3434733525       -5.4869731376       -0.6445777250
 C         3.3723961128       -4.1640814957       -1.5460400836
 C         3.2792747373       -4.2816462388       -3.1255791090
 C         1.8949565928       -3.8669923321       -3.5796021981
 C         1.1175191177       -4.4518422153       -4.8417634612
 C         4.2173445529       -3.3004024511       -3.8568505769
 C         3.4263575687       -5.7371355498       -3.5584212775
 O         3.6800873859       -3.1229757449       -1.0562268729
 O         1.1607388499       -2.9897776322       -3.0299957382
 C        -0.3415468463       -4.7351523660       -4.5374433896
 C        -0.5076113850       -5.6163436022       -3.2518113958
 C        -1.8752276396       -6.0163140447       -2.6813256620
 C        -2.5277113053       -4.9960649875       -1.6915740054
 C        -1.5855239798       -4.3817731202       -0.5604771485
 O         0.4726038169       -5.9657275940       -2.6377225898
 O        -3.6286796736       -4.5665871715       -1.8916878727
 C        -2.8092398664       -6.2188631539       -3.9401783682
 C        -1.7627570220       -7.4907217761       -1.9849987192
 H        -4.3816264556        3.0485091734       -3.3631311853
 H        -4.7091499363        1.3120979019       -3.5666320629
 H        -5.8870843652        2.4310924388       -4.1284611412
 H        -7.2731815489        4.0483373722        1.4876652637
 H        -6.0776447186        2.8169953106        0.9210772463
 H        -6.1278743567        4.9057662342       -3.1078215418
 H        -7.8103190665        5.2075123483       -2.5016078415
 H        -7.5049535239        3.7775660397       -3.6019865509
 H        -7.7213351447        1.8874549677       -0.3410263571
 H        -8.8065450266        3.0370381933       -1.1191345649
 H        -8.0246409140        1.7991228952       -2.0574387783
 H        -5.4641817416        5.5730149309        2.3525686833
 H        -4.8695211780        3.9802340819        2.6979633688
 H        -0.7204296771        6.1872080613        3.3837729396
 H        -1.5751082159        5.2521606985        4.6022046995
 H        -1.4766403912        5.3840417058        0.4177930311
 H        -1.2532881085        7.1610367229        0.8769404990
 H        -2.2950732195        6.6996072881       -0.3690402070
 H        -3.8821516711        8.3362204842        0.9383268528
 H        -5.1851688053        7.1228556972        1.1725658021
 H        -4.2666556684        7.7575888332        2.5092770482
 H        -0.2507681992        3.6990874163        3.5275784713
 H        -1.0292041639        3.9859058216        1.9071546054
 H        -2.7054722083       -0.7630796827        0.7918268211
 H        -3.7129739326        0.6362955455        0.5899588563
 H        -0.8607977296        1.2888475257        4.7889753942
 H         0.0527918934        1.1781609942        3.2573160051
 H        -0.8322435747       -0.1471934784        3.6231108843
 H        -3.0370599412       -0.4424014917        3.1656970267
 H        -3.6825341003        0.8774631982        4.3068342425
 H        -4.1602199808        0.7239584363        2.6516550556
 H        -2.8419528106       -0.2401055281       -1.4726430683
 H        -2.5530666821        1.4811460198       -1.1754456988
 H         1.8321439157        3.1382759129       -1.0466155452
 H         1.3265393895        2.1587422717        0.3087278527
 H         0.8097707200        0.6599327836       -4.0867923734
 H        -0.8936345984        0.3625474508       -4.1068348977
 H         0.2266488168       -0.8155177422       -3.2861175373
 H         0.3821771819        2.9507632398       -3.0432080317
 H        -1.1468283729        2.4213267349       -3.3573942502
 H        -0.8327381678        2.8702481963       -1.6498760685
 H         3.6179539369        2.9434088126        0.2957896861
 H         4.0884343127        2.3734131712       -1.2139139118
 H         6.2743133560       -1.8795181589        1.9023095959
 H         6.0665809669       -1.5250674058        3.8212458708
 H         5.3607998710       -1.5509400728        0.1521716652
 H         6.8489532419       -0.9271464748       -0.3957606958
 H         5.3792328016       -0.5135523030       -1.2683419801
 H         5.9389883553        2.5066880587        1.1695780996
 H         7.3368339292        1.5903119787        1.0011853207
 H         6.4313257940        1.9800674396       -0.4926762567
 H         3.5966198803       -1.6401282180        3.4602491765
 H         3.6784934963       -1.4773607578        1.7566090758
 H         1.7722812058       -6.2844221805        0.6375729538
 H         1.3382394763       -5.1015929922       -0.4780890403
 H         3.4136063814       -6.5081299099        2.2757576581
 H         2.1365476880       -6.2976637061        3.4789111949
 H         3.6514030996       -5.6945641039        3.9073119253
 H         1.2913832616       -2.8709899825        3.3239659587
 H         1.1420976892       -4.4793799768        4.1870787738
 H         2.4079684525       -3.3752609732        4.5409786778
 H         3.3323219569       -6.3971395826       -1.1767772644
 H         4.1767282502       -5.5012332804        0.0740062811
 H         1.2506208639       -3.7156868209       -5.6521307084
 H         1.5529361130       -5.3465704859       -5.1783951048
 H         3.9648601999       -3.2889586398       -4.8762116095
 H         5.2402713447       -3.4772659502       -3.4451839255
 H         3.8564371878       -2.2853219983       -3.6025456523
 H         4.3379864204       -6.2036080456       -3.2006945654
 H         2.6420537609       -6.4445355692       -3.1955257276
 H         3.4804830788       -5.8006806528       -4.5977262835
 H        -0.8796711195       -3.8382642172       -4.2985865091
 H        -0.7965029384       -5.1764619242       -5.3530414931
 H        -0.9443375943       -3.7134713967       -1.0153031703
 H        -2.0412357303       -3.8191856216        0.2828609155
 H        -0.8994183239       -5.0700333135       -0.0656169944
 H        -3.5781497830       -6.9055889655       -3.8451801631
 H        -2.2135492759       -6.5024741232       -4.7602522132
 H        -3.2376304703       -5.1462964155       -4.1981545478
 H        -2.6561991613       -7.6877071068       -1.4519028062
 H        -1.6444067926       -8.1791122202       -2.8062737416
 H        -0.9246113263       -7.4777948756       -1.3559866422
 Na        1.8323098111       -1.7457849754       -1.2038275812
