155

 C        -5.2852134869        2.1985676240       -3.5087770543
 C        -5.9151882711        1.6323575002       -2.3271068457
 C        -7.1826263991        2.4387215450       -1.6879531994
 C        -6.3640862060        3.6890321507       -0.9553103847
 C        -5.8136368742        3.4111912968        0.4030112031
 C        -8.0848194774        3.0767092522       -2.7417862243
 C        -7.9141456589        1.4535317461       -0.6774416224
 O        -5.6497815699        0.5780540018       -1.8210363939
 O        -6.0944216295        4.7222732609       -1.4909280177
 C        -5.2504837825        4.6069007460        1.1033832404
 C        -3.7431799079        4.9634924794        0.7790332997
 C        -3.2448840069        6.2836176327        1.5082784178
 C        -3.5362490947        5.9419631070        3.0522664426
 C        -2.3190552481        5.4637503559        3.8046853161
 O        -2.9919510064        4.2714396588        0.1778467728
 O        -4.6448986202        6.0575534305        3.4818843413
 C        -1.8235194377        6.7464807884        1.1087023460
 C        -4.2944429769        7.4337037829        1.1149688330
 C        -1.8606487167        4.0075755925        3.3106346389
 C        -2.9885081022        2.9576122431        3.6516941194
 C        -2.5643599905        1.4401024935        3.5845782810
 C        -2.0560481823        1.3808113523        2.1053280486
 C        -2.8844451551        0.7488545326        1.0413777839
 C        -1.4568088195        1.0049257881        4.4940814626
 C        -3.8153292318        0.5604719265        3.7552376814
 O        -4.0873073196        3.2932260975        3.9341469018
 O        -1.0205976356        1.9932062967        1.8597320037
 C        -2.2543639375        1.2173276013       -0.2417884694
 C        -0.7890621577        0.7845525442       -0.6148580770
 C        -0.0403875948        1.7638358561       -1.5676761192
 C         1.4237191846        1.5797546870       -1.1022365333
 C         1.9627423997        2.3047876242        0.1586615772
 O        -0.2621400235       -0.2174253203       -0.2755274741
 O         2.1865707649        0.8807949052       -1.7759180898
 C        -0.1346412138        1.4636060461       -3.0555053703
 C        -0.3332669383        3.2607114208       -1.2629304510
 C         3.4254795462        2.0681187528        0.4330660110
 C         3.8315512402        0.7517969504        0.9755110274
 C         5.2113727403        0.6505707341        1.7704712524
 C         5.3424409293       -0.5710997458        2.7216152286
 C         5.2487045942       -1.9634630645        2.0635463573
 C         6.3583880797        0.7247038451        0.6499791875
 C         5.4559666948        1.9773994957        2.6524877519
 O         3.1296973140       -0.2397288746        0.8450789504
 O         5.4697178112       -0.4752583768        3.9191505669
 C         4.0229089648       -2.6797851310        2.7679440918
 C         4.0235812887       -4.1151867667        2.5532849608
 C         2.6380915854       -4.8818883924        2.0942925510
 C         2.3064042206       -4.3305686903        0.6077332525
 C         2.6285454526       -5.0778809180       -0.6932990945
 O         5.0309767108       -4.7479191516        2.6957127858
 O         1.8750435919       -3.1819755421        0.6093867886
 C         2.7442680691       -6.4919357446        2.2045444935
 C         1.5374216491       -4.3635153997        3.1316596594
 C         3.9047668139       -4.6852646062       -1.4343593620
 C         4.0087611385       -3.2176484484       -1.8270259664
 C         3.7903370393       -2.7229845172       -3.3713683710
 C         2.2461025261       -3.0908138076       -3.6671907276
 C         2.0348045635       -4.2021017196       -4.6446470470
 C         4.1482108626       -1.1950304032       -3.4052206534
 C         4.8937182233       -3.5018851674       -4.3020758061
 O         4.1752439676       -2.3707498370       -0.9346317468
 O         1.3942765982       -2.5333027247       -3.0096657319
 C         0.5952910216       -4.7534511140       -4.7652966335
 C         0.2614399947       -5.9526381550       -3.7993065258
 C        -1.2240216298       -6.5141282743       -3.9194265861
 C        -2.1263687191       -5.6108803629       -2.8380953099
 C        -2.9848372736       -6.2344252081       -1.7467374831
 O         0.9313921235       -6.2706385377       -2.8503797143
 O        -2.0161025814       -4.4233665057       -3.0192855586
 C        -1.9354472606       -6.2102367550       -5.2964235755
 C        -1.4068046937       -8.0380034916       -3.7923614496
 H        -5.3748562949        3.2326363472       -3.3893139168
 H        -4.1672342144        2.0217079419       -3.5440942344
 H        -5.6439056354        1.8497532365       -4.4206740790
 H        -6.5288697434        2.8232661529        1.0402998789
 H        -4.9972772470        2.7440676104        0.2306673871
 H        -7.5641785802        3.3039261618       -3.6690511719
 H        -8.5768542309        3.9945730053       -2.4112458977
 H        -8.9682171717        2.4445566565       -3.0188395761
 H        -7.4990598677        0.3934046066       -0.9124464205
 H        -7.7664013749        1.6309000737        0.3880443172
 H        -8.9071977482        1.3300523282       -0.9393899750
 H        -5.9702132591        5.4917557511        1.2416120956
 H        -5.2428450851        4.4275710265        2.1665983302
 H        -1.4639308123        6.0942706884        3.6323781762
 H        -2.5297689520        5.3975692301        4.8942284816
 H        -1.0642208679        6.0500483891        1.3633904403
 H        -1.6174310323        7.6370983193        1.5719950281
 H        -1.8209974108        7.0920598917        0.0828106686
 H        -5.2066795077        7.4608631029        1.7779401616
 H        -3.8569240006        8.3458192052        1.4518423680
 H        -4.5969823747        7.4560625268        0.1186736215
 H        -0.8929047049        3.8237581960        3.7297347102
 H        -1.6622941488        3.8953188378        2.2604697417
 H        -2.8756561855       -0.3338282684        1.1526259436
 H        -3.9510248513        1.1355995582        1.2279889283
 H        -1.6281724993        1.5588516552        5.4131705390
 H        -0.4916005091        1.1823733106        3.9866468851
 H        -1.3148050437       -0.0773188110        4.6675418663
 H        -3.6467013068       -0.4075898172        3.4173270414
 H        -3.9767766756        0.5455358271        4.8122426303
 H        -4.7513648622        1.0062573373        3.2554780425
 H        -2.8871573555        0.9838483901       -1.1598534250
 H        -2.2924434907        2.3152331693       -0.1561387258
 H         1.7172228645        3.4229172687        0.1570269124
 H         1.3564033551        1.8132423741        0.9186165535
 H         0.6607752555        1.9995424573       -3.6739947938
 H        -1.0191606653        1.8890747522       -3.4798436717
 H        -0.1010426493        0.4512390227       -3.3411679886
 H         0.4805647551        3.8329913674       -1.6782102088
 H        -1.1673434883        3.7102775301       -1.8196337003
 H        -0.4870809317        3.4759449353       -0.1361256319
 H         3.7511990397        2.7415340853        1.2126955521
 H         3.9794800463        2.2388983271       -0.5181612843
 H         5.0180765526       -1.9999352826        0.9266074167
 H         6.1163830187       -2.6257073484        2.3440094071
 H         5.9003646766        0.1476700386       -0.1535614889
 H         7.3352835085        0.3263969515        0.8929322710
 H         6.4753597525        1.6953881751        0.2781845148
 H         4.9626693316        1.7911193275        3.6198918709
 H         6.4916057278        1.9423888417        2.9401406567
 H         5.3121661847        2.9690373106        2.1253203767
 H         4.2337851351       -2.4275943330        3.7287759165
 H         3.0845452708       -2.1056250646        2.5395967904
 H         2.4912257434       -6.1842362851       -0.7012727090
 H         1.7031031428       -4.7896584710       -1.3027150331
 H         3.7012749891       -6.7491004857        1.8590767503
 H         1.9462271549       -7.0650411195        1.6803119073
 H         2.6072119954       -6.7199629538        3.2851200022
 H         1.4242425558       -3.3142616116        3.1874208933
 H         0.5183762406       -4.8194857200        2.9255068685
 H         1.7895333137       -4.6308910704        4.1425722036
 H         3.9789211400       -5.2169475965       -2.3970165595
 H         4.8544942158       -4.8808171507       -0.8809782475
 H         2.2510276548       -3.7230211352       -5.5737727254
 H         2.7682103290       -4.9989034704       -4.4387442864
 H         4.5786145684       -0.9857258595       -4.4483215733
 H         4.7545751024       -1.1203274587       -2.5187853130
 H         3.2515604550       -0.4957217924       -3.3673252931
 H         5.8694679382       -3.2138066197       -4.0492407650
 H         4.9007648695       -4.5539011169       -4.2586879920
 H         4.6456891687       -3.1286779380       -5.3554798498
 H        -0.0851982912       -3.9219691666       -4.4497187886
 H         0.4040469943       -5.0023533687       -5.8518187851
 H        -2.7304518572       -7.2524846115       -1.3073679721
 H        -3.0197897289       -5.6123191533       -0.8960233896
 H        -3.9902579610       -6.3541816821       -2.0952441974
 H        -1.6915206023       -5.3420021595       -5.7995931110
 H        -3.0087173689       -6.1870270460       -5.2362111725
 H        -1.5735799918       -7.1179120986       -6.0082056386
 H        -2.3741739367       -8.4720134559       -3.6792415103
 H        -1.0443920572       -8.4046008484       -4.7183675365
 H        -0.7221878679       -8.4227716161       -3.0419788682
 Na        2.0325992570       -1.3783836924       -0.7529607862
