155

 C        -5.5878658900        2.0921692273       -3.9812254579
 C        -5.7675721602        1.5742767124       -2.6044461863
 C        -7.1012723917        1.7307859082       -1.7932557508
 C        -6.5999241492        3.1240098289       -1.1290545479
 C        -6.0036954944        3.1573692443        0.2098948107
 C        -8.3910113565        1.8245656653       -2.6302162073
 C        -7.2260193294        0.6066639141       -0.7414048088
 O        -4.8071571188        1.0513154760       -2.0704047092
 O        -6.6329386693        4.0126994786       -1.9588195691
 C        -5.6448944765        4.6621388848        0.7235879341
 C        -4.1752159578        4.7853607517        1.0145170401
 C        -3.7308983020        6.2332869388        1.3432836018
 C        -4.1357175153        6.1643347944        2.8685057779
 C        -3.2010633487        5.6252391621        3.9386028566
 O        -3.4237101265        3.7786957943        0.9203234514
 O        -5.3318137785        6.2832182740        3.0886598487
 C        -2.2407241023        6.3347708186        1.1865272733
 C        -4.4589835237        7.3928924393        0.6335995688
 C        -2.3914394633        4.2524130409        3.9180437698
 C        -3.2598904738        2.9229706274        3.7441998381
 C        -2.3941686616        1.5154896222        3.7091975564
 C        -1.7708497531        1.2712581681        2.2676663395
 C        -2.6633462621        0.5815629251        1.2696853149
 C        -1.2763463143        1.5725348280        4.7776165591
 C        -3.3037300707        0.3979683113        4.1008426609
 O        -4.4896110797        2.8817120403        3.5985607037
 O        -0.6280492562        1.6670278877        1.9837047454
 C        -2.2003609056        0.9445542038       -0.1519276160
 C        -0.6361282880        0.7551233818       -0.2914474504
 C         0.0658448856        1.9703869625       -1.0429167546
 C         1.5292520487        1.7115474670       -0.7186336986
 C         2.1700425007        2.3229601393        0.4975700551
 O        -0.1077283669       -0.3224735953       -0.0990550794
 O         2.1796392138        0.9452867359       -1.4573958324
 C        -0.2091087499        1.8401976370       -2.5177339934
 C        -0.4106329189        3.3282774222       -0.6457877999
 C         3.6074314580        1.8955619237        0.7376733953
 C         3.6227966725        0.6064943303        1.6195766221
 C         4.8420094672        0.5497183187        2.8264373897
 C         4.5998306690       -0.8713222246        3.4444321564
 C         5.1164609527       -2.1344125726        2.7935903500
 C         6.2792982643        0.5687542931        2.2976675100
 C         4.6800446929        1.7788304077        3.7265275068
 O         2.7674120964       -0.2214277109        1.4592946215
 O         4.0575571436       -0.9938904027        4.5369673791
 C         4.0786376620       -3.2840996267        2.9337053351
 C         4.3205321828       -4.5296962714        2.0812792350
 C         2.9829321041       -5.2316189221        1.6876929846
 C         2.4714617333       -4.4790519891        0.3194356571
 C         3.0032601904       -4.8238123303       -1.0252429782
 O         5.3786379758       -4.8860838363        1.6299110671
 O         1.6944017618       -3.5677473326        0.4853482837
 C         3.1710819815       -6.7768166148        1.4594677294
 C         1.8405244159       -5.0441177540        2.7710625340
 C         4.3388359722       -4.0600139897       -1.3721833593
 C         4.0827141378       -2.6151049929       -1.8248527628
 C         3.8220070846       -2.2852753788       -3.4497238020
 C         2.2870171255       -2.3427409640       -3.7019056151
 C         1.5838101833       -2.5996258343       -5.0526506830
 C         4.4220081570       -0.8872711317       -3.7233805311
 C         4.6747157686       -3.2326862771       -4.3498197286
 O         4.3359402211       -1.6710802255       -1.0575942897
 O         1.5654039393       -2.0492957195       -2.7939888051
 C         0.4068718673       -3.5260290653       -4.7336201230
 C         0.6800421037       -4.9949795369       -4.3975852993
 C        -0.6033597558       -6.1696600287       -4.4345455490
 C        -1.7862499766       -5.6333942679       -3.7155493557
 C        -3.2503369253       -5.7815032587       -4.5483511707
 O         1.7742887817       -5.3484764903       -3.8710686698
 O        -1.7444496194       -4.9789149897       -2.6622994392
 C        -0.7177478492       -6.5957203415       -5.8906310698
 C        -0.0407518588       -7.4628619515       -3.6431906345
 H        -6.5842567012        2.5272353158       -4.3952450585
 H        -4.8193420327        2.8898239390       -3.7802044313
 H        -5.2336027033        1.4210078974       -4.7607713277
 H        -6.5457937782        2.7005279532        1.0672428000
 H        -5.0504100726        2.6320101175        0.2025768618
 H        -8.9070029951        2.8172781111       -2.4717801813
 H        -9.1829524903        1.1574969970       -2.2352680711
 H        -8.1722315019        1.7614451336       -3.6888094553
 H        -8.2073514043        0.3093104226       -0.5492248692
 H        -6.6220814890       -0.3192824003       -0.9616678957
 H        -6.8474726249        0.9143458057        0.3055448298
 H        -5.9228996773        5.3061127382       -0.1376126420
 H        -6.3058554951        4.9170921352        1.4960532233
 H        -2.3178996172        6.2520070045        4.2110226337
 H        -3.8321131723        5.7531169648        4.8200369916
 H        -1.8004102317        5.3473326039        1.4696414707
 H        -1.7283693677        7.1796569720        1.7178555260
 H        -1.9797213562        6.5668872181        0.1310815130
 H        -5.3536875361        7.7308240379        1.0824333761
 H        -3.8358117039        8.3137301134        0.6105151616
 H        -4.5654430460        7.1200749239       -0.4698621606
 H        -1.9803907908        4.2280053605        4.9585040201
 H        -1.6331541756        4.1923137680        3.1382957606
 H        -2.5188829826       -0.4819874915        1.3434305665
 H        -3.6926084277        0.8194202440        1.5515063772
 H        -1.6625815272        2.1885259673        5.5543264079
 H        -0.3693301649        2.0623374021        4.4345257971
 H        -0.9392055278        0.5769314051        5.1161815564
 H        -2.8529050978       -0.6631080651        4.0994394329
 H        -3.7731423938        0.4872118727        5.1391031278
 H        -4.1109415508        0.4740325977        3.4520020585
 H        -2.6255972302        0.2360960251       -0.8591807172
 H        -2.5148352190        1.9321889791       -0.3471041750
 H         2.0017577877        3.3800029442        0.1729428911
 H         1.6126895502        2.1665385885        1.3317882274
 H         0.0538466400        2.5787282459       -3.2139440506
 H        -1.2973741390        1.7288529045       -2.7370644250
 H         0.1734977105        0.8583269232       -2.8727107607
 H         0.3551425870        4.1208664150       -0.7056369718
 H        -1.2539797347        3.7527170085       -1.2283677495
 H        -0.6806617053        3.4506198639        0.3989075065
 H         4.2572472994        2.6888334973        1.1726257281
 H         4.0888841893        1.5713084241       -0.2466328341
 H         5.3316477544       -2.0875367237        1.7770583534
 H         6.0125093471       -2.3039138537        3.2434611121
 H         6.4114462744       -0.2034065211        1.5233008037
 H         7.0295577747        0.6525366562        3.0972550054
 H         6.3460104920        1.5034309683        1.7525226983
 H         3.6294464232        2.0471498579        3.9666205483
 H         5.2551221166        1.7317221195        4.6946610034
 H         5.1659262807        2.5832141931        3.1407876970
 H         3.9855304723       -3.5429535010        4.0434717645
 H         3.2023181539       -2.8033187954        2.4684002914
 H         3.1406528847       -5.8637320177       -1.1130243551
 H         2.3793500918       -4.5070220523       -1.8077173814
 H         4.0499830899       -6.9774846008        0.7943312994
 H         2.2684721312       -7.1530952602        1.0646376980
 H         3.2761415681       -7.4099880538        2.3683470558
 H         1.1765327668       -4.1772851403        2.7513146993
 H         1.1999610768       -5.9040640470        2.6971895068
 H         2.2953007729       -5.2268877705        3.7097320324
 H         4.9096737549       -4.6826536620       -2.1074768117
 H         4.9510158709       -4.0815825349       -0.5148546614
 H         1.1901625876       -1.6620482383       -5.5017367719
 H         2.2628776290       -3.0735073944       -5.8718292349
 H         4.1434215156       -0.5850793970       -4.6995354266
 H         5.5290517450       -0.8519879925       -3.8838765176
 H         4.2810832424       -0.2204796486       -2.8967247986
 H         5.6038719245       -3.5900921476       -3.8264272176
 H         3.9874399963       -4.1029479198       -4.6518914686
 H         4.9366698290       -2.7151912884       -5.2163797538
 H        -0.0542739971       -3.1350614139       -3.8281556847
 H        -0.4259518769       -3.5188578335       -5.5012229163
 H        -4.0529685268       -5.1865566717       -4.2381147591
 H        -3.0650447594       -5.5188119821       -5.6316327748
 H        -3.6884872914       -6.7750895810       -4.5753339121
 H        -1.3240362141       -5.7830201632       -6.4036316276
 H        -1.2225272488       -7.5228748847       -6.1190025285
 H         0.1845080035       -6.5464128612       -6.3848887590
 H        -0.8398415305       -8.1741948334       -3.5659861686
 H         0.7312273227       -8.0369554100       -4.1584586784
 H         0.2481584713       -7.3762052352       -2.5917665294
 Na        1.8447762664       -1.4268541611       -0.5296684449
