155

 C        -4.9312326173        0.5660637252       -4.6440529826
 C        -4.7361993266        0.7898183598       -3.1120621369
 C        -5.9878983584        0.6026819461       -2.1007444864
 C        -6.4088106645        1.8528643143       -1.1227279228
 C        -5.5676275371        3.2037061343       -1.4126399760
 C        -7.3253649662        0.2094469250       -2.9378447229
 C        -5.6664251008       -0.6261907564       -1.2344861169
 O        -3.6959670543        1.1004670165       -2.6722563355
 O        -7.4989555743        1.9591643697       -0.6011982999
 C        -5.9259565524        4.2534369621       -0.2960543377
 C        -4.7120921974        4.7035019313        0.5831770727
 C        -4.8399971239        5.9301030568        1.5256356456
 C        -5.1260073797        5.3520868154        2.9626110285
 C        -4.0204801644        5.3447837578        3.9782492378
 O        -3.7143618238        3.9984750360        0.6538472447
 O        -6.1371793987        4.6774862260        3.1836348365
 C        -3.8457808048        7.0495253101        1.4696425903
 C        -6.2274771530        6.5477131431        1.2664276627
 C        -2.9829866704        4.3037036776        3.7021013611
 C        -3.3384223296        2.9112195819        4.3414555213
 C        -2.3725747427        1.7153740404        4.3009666566
 C        -1.7926039199        1.6179803147        2.8940468932
 C        -2.5035103675        0.7438175840        1.8205202983
 C        -1.2645580115        2.1360207581        5.2977977250
 C        -3.0475403240        0.3881029294        4.7954726096
 O        -4.3699426523        2.8413914341        4.9518480048
 O        -0.7785156577        2.2109739598        2.5914440158
 C        -2.1146480987        1.0909770699        0.3462800156
 C        -0.6174236650        0.8599021975        0.0878278084
 C         0.3586389557        2.0365735108       -0.3753426363
 C         1.8073948054        1.8062600699        0.1252779959
 C         2.3740735212        2.5088053195        1.2943175663
 O        -0.1623972155       -0.2765209036        0.3410815136
 O         2.5667197244        1.2179322165       -0.6545691962
 C         0.3030601120        1.8528611625       -1.9034845862
 C        -0.2030273713        3.5064835252       -0.0433979519
 C         3.5805544718        1.7680761619        1.9773768556
 C         3.2430331223        0.3810621858        2.6002687898
 C         3.4216361689        0.1685466315        4.1933807168
 C         3.2999049070       -1.3368137461        4.3342698986
 C         4.3013891936       -2.2403375728        3.6107073296
 C         4.8735813003        0.7772905516        4.6129606561
 C         2.2109530234        0.9291486130        4.9500344172
 O         2.8399689996       -0.4921727238        1.8966445333
 O         2.1660939334       -1.7607829911        4.5296255264
 C         3.6676953091       -3.6553637069        3.3583033758
 C         4.2918393608       -4.2452992144        2.0544018454
 C         3.4844518328       -5.2636560187        1.2968319907
 C         2.9342115080       -4.3425015527        0.0430605037
 C         3.3549546562       -4.6300332036       -1.3971714858
 O         5.2988176962       -3.8163269875        1.5407022998
 O         2.2415743855       -3.3913049256        0.3525657095
 C         4.3851007555       -6.3659913016        0.7583030994
 C         2.2875392092       -5.7940322304        2.0054803138
 C         4.5104563097       -3.7492017969       -1.8393058066
 C         4.1426424625       -2.2148855078       -1.8418295429
 C         3.7949931312       -1.5824966177       -3.2965264622
 C         2.2241761463       -1.8316829881       -3.6271644758
 C         1.7763330290       -1.8403038738       -5.0490439336
 C         4.0239431815       -0.0696805048       -3.1582455044
 C         4.7829600195       -2.2029376385       -4.3068607186
 O         4.1719740136       -1.5198723082       -0.8430298087
 O         1.4230705871       -1.8624348746       -2.7467440298
 C         0.6156331166       -2.7994299502       -5.1464418065
 C         1.2237580163       -4.2737653471       -5.1820516796
 C         0.5540527861       -5.2693835035       -6.2249390204
 C        -0.9634189472       -5.1968160995       -5.9759316651
 C        -1.9273745819       -5.2145030752       -7.3124921140
 O         2.1896769455       -4.6508798407       -4.5346138575
 O        -1.5513733986       -5.1625347446       -4.9587864105
 C         0.9170185412       -4.7429885321       -7.6212580543
 C         0.9446117911       -6.7667949717       -5.9234495981
 H        -5.9377196182        0.7406428857       -4.9909083008
 H        -4.2842122379        1.1140302213       -5.1530884608
 H        -4.7173269517       -0.4814953389       -4.8535076352
 H        -4.4749005485        3.0864247661       -1.4935248258
 H        -5.8772371820        3.5052294200       -2.4272514645
 H        -7.1417443600       -0.6867206404       -3.6102906137
 H        -7.8514199706        1.0417458179       -3.5087322645
 H        -8.1392725563        0.0134904663       -2.2618816473
 H        -4.8303918251       -0.3925363369       -0.5408868067
 H        -6.4765364741       -1.0978639114       -0.7243768072
 H        -5.3186501782       -1.3298480836       -1.8811476711
 H        -6.4871301077        5.0750095418       -0.8164703690
 H        -6.7458345231        3.9148501339        0.3838639560
 H        -3.6432239190        6.3475452264        4.0371047973
 H        -4.4702292336        5.0915236875        4.9333038380
 H        -2.8488969223        6.5811073605        1.4028554107
 H        -4.1512944443        7.7189363518        2.3540956215
 H        -3.9301173772        7.5822752475        0.5332179085
 H        -7.0377001260        5.7852039178        1.1027904367
 H        -6.3973304152        7.2886084263        2.0792985338
 H        -6.1178199863        7.1101256689        0.2869808924
 H        -2.0940421153        4.6697159722        4.1718600288
 H        -2.7652567706        4.2035042296        2.5968484956
 H        -2.3146092072       -0.3014355799        2.0257474402
 H        -3.6079986620        0.9271807788        1.9004249708
 H        -1.7389185664        2.3988110468        6.2692363558
 H        -0.7846797138        3.0349706825        4.8363837009
 H        -0.5918166432        1.4292298843        5.6054445424
 H        -2.4161186624       -0.4428207201        4.5661383659
 H        -3.3075851805        0.3867239262        5.7889008141
 H        -3.9878319033        0.1562216001        4.1781123323
 H        -2.7165369729        0.3649944781       -0.2893388592
 H        -2.5110773532        2.0842162973        0.1874798280
 H         2.5061722822        3.5755054031        1.0093305445
 H         1.5797437537        2.5243352554        1.9465464594
 H         1.0013679503        2.4305115889       -2.4545071028
 H        -0.7058448467        2.2043847199       -2.2057170573
 H         0.4244178055        0.7718783231       -2.2107504424
 H         0.4824493016        4.1946421204       -0.5360403239
 H        -1.1641348360        3.7191911901       -0.5333718405
 H        -0.3591267791        3.8333331282        0.9559095414
 H         3.7579028517        2.4095732320        2.7864510165
 H         4.4478619322        1.8098763620        1.3444363421
 H         4.4483275724       -1.8341802393        2.6133671727
 H         5.2550555432       -2.2991899909        4.0138609113
 H         5.6418863551        0.1561698250        4.1643639752
 H         5.1070149145        0.7142653771        5.6744783861
 H         5.0385079910        1.8534218229        4.2601655221
 H         1.2390836889        0.5089055224        4.6912391531
 H         2.2739112400        0.7077553449        6.0488432944
 H         2.2079459091        1.9838772803        4.8416194341
 H         3.8980795908       -4.1647425293        4.3348583659
 H         2.6952762736       -3.3887298279        3.2634002161
 H         3.7916414562       -5.6353420678       -1.6683541564
 H         2.5338175484       -4.4428396593       -2.1196680189
 H         5.3275740043       -5.9448703095        0.2793578019
 H         3.8380256527       -6.8679203863        0.0128652728
 H         4.7593189603       -7.0317515777        1.5296492897
 H         1.6752936743       -4.8843918956        2.1467997224
 H         1.8053181188       -6.5679133427        1.5238992166
 H         2.5374335794       -6.1112571707        3.0410311100
 H         4.7180749887       -4.0515211787       -2.9124692992
 H         5.4461267411       -3.9803067827       -1.2755279404
 H         1.5549040688       -0.7772576910       -5.2546915767
 H         2.5018504459       -2.1048020372       -5.8623752906
 H         3.8251704484        0.4302419798       -4.0474160545
 H         5.0151618476        0.0851536743       -2.8031811245
 H         3.5670342722        0.4821842411       -2.3824008739
 H         5.8367441602       -1.8503831590       -4.0708268309
 H         4.8088818172       -3.2327917328       -4.3140193789
 H         4.5694819656       -1.8011576480       -5.2779561182
 H        -0.0436212675       -2.8653556385       -4.2897915718
 H        -0.0660710289       -2.7335475361       -5.9433192804
 H        -2.8776983833       -4.8925343694       -6.9463091353
 H        -1.4830245078       -4.6577208029       -8.0991797468
 H        -1.9720180807       -6.2319598527       -7.6032916540
 H         0.8051458235       -5.5705563311       -8.4121596757
 H         2.0877844196       -4.4730565775       -7.5717389982
 H         0.4186889220       -3.8569487307       -7.8675309691
 H         0.9857291067       -7.3208584845       -6.8852234268
 H         1.9425428385       -6.8506079947       -5.4073856683
 H         0.2185923473       -7.2802303225       -5.3074875027
 Na        1.8326640727       -1.0658223198       -0.3914584886
