155

 C        -4.7112506848        0.3747311705       -4.5149151080
 C        -4.6615441211        0.8499751660       -3.0502779368
 C        -5.9779111998        0.5837685690       -2.2525602389
 C        -6.3988152187        1.8226062461       -1.3862714310
 C        -5.6327120369        3.1489485056       -1.4810613072
 C        -7.2453573228        0.0033057740       -2.9768483346
 C        -5.4965321059       -0.3212432421       -1.1305775201
 O        -3.6339718111        1.3800748191       -2.5119621993
 O        -7.2686585419        1.6053016159       -0.5482299995
 C        -6.0871141775        4.1714634045       -0.4616475614
 C        -5.0249909466        4.5031455429        0.6035278131
 C        -5.1358192442        5.7841543973        1.5785098876
 C        -5.3547632623        5.2730753607        2.9905145371
 C        -4.1586806380        5.3221727319        3.9976990357
 O        -3.9439763106        3.9524503912        0.6453550093
 O        -6.3225132999        4.6227602356        3.2845157632
 C        -3.8414441646        6.5617025445        1.3438272311
 C        -6.3551865075        6.6892111158        1.2411039850
 C        -3.0633129836        4.1935253643        3.8466070194
 C        -3.4306903859        2.9031736598        4.4980122670
 C        -2.4101279175        1.7539599378        4.3752775133
 C        -1.7605647406        1.6205818903        2.9783225594
 C        -2.4630091174        0.8583798541        1.9253821848
 C        -1.1917619166        2.0866765444        5.4352146636
 C        -3.1102849517        0.4141816063        4.8189611557
 O        -4.5845734923        2.7091940628        4.8905226262
 O        -0.6002100024        1.9429618112        2.6944148499
 C        -1.9481009535        1.2900252969        0.5273940474
 C        -0.5679337310        0.9414993604        0.1759436271
 C         0.3906760356        2.0596470773       -0.4098130309
 C         1.9038806579        1.9660231442        0.0132234798
 C         2.3229169012        2.5876438767        1.3570333680
 O        -0.2109657299       -0.2111997059        0.3075321156
 O         2.7091448270        1.4067709125       -0.6959442379
 C         0.2308968686        1.7534213482       -1.9045319467
 C        -0.0283458160        3.4941003542       -0.0198751671
 C         3.6107018515        1.8924612211        1.8440654878
 C         3.1972745200        0.5609583765        2.4788207991
 C         3.2627101854        0.2135419248        4.1168343670
 C         3.1183354792       -1.4272956133        4.1318385552
 C         4.2990538371       -2.3352727104        3.9030593084
 C         4.6327300949        0.6215135213        4.6727469927
 C         2.1067121364        0.8964882020        4.8619600814
 O         2.7411744193       -0.3610231524        1.7700712126
 O         2.0663928040       -1.9082005509        4.5077837970
 C         3.8126708808       -3.7437991694        3.3665810987
 C         4.3170448625       -4.1191088022        2.0461651697
 C         3.4199151576       -5.1064884831        1.1475870763
 C         2.7915870588       -4.2501094550       -0.0504163129
 C         3.2605736630       -4.4782153479       -1.4734150773
 O         5.4501194734       -3.8708357784        1.6459008699
 O         2.0551713463       -3.3773376103        0.3958793663
 C         4.3318473659       -6.3232608860        0.6614930274
 C         2.2417558265       -5.7801074120        1.8855740340
 C         4.6642359501       -3.7282055321       -1.6644124316
 C         4.2555259149       -2.2541450884       -1.8442065570
 C         3.9233485491       -1.5514484726       -3.3058666223
 C         2.4119579999       -1.8196792704       -3.4662880751
 C         1.7673789971       -1.7808485917       -4.8601460363
 C         4.1940228807       -0.0132139582       -3.1368047726
 C         4.7420342473       -2.1572467352       -4.3952970112
 O         3.9022992484       -1.6281832284       -0.8585757220
 O         1.6683123857       -1.8070990916       -2.4387092958
 C         0.6894653610       -2.7970565584       -5.1246906108
 C         1.2704858293       -4.2309747527       -5.3169190871
 C         0.6403053171       -5.1453137330       -6.3870775442
 C        -0.9939090579       -5.0867837653       -6.2833747113
 C        -1.8820046807       -5.5097665110       -7.4022313249
 O         2.2452136464       -4.5796003464       -4.6689193279
 O        -1.4604063662       -4.8812795864       -5.1397690283
 C         1.2060615606       -4.6308066585       -7.7042305936
 C         0.9922628252       -6.6646759332       -6.2872467917
 H        -5.2651053833        1.1842898465       -5.0786366241
 H        -3.7367210288        0.2336403808       -5.1044191354
 H        -5.3242172889       -0.5709479078       -4.5631699068
 H        -4.5645741135        2.8735063169       -1.3098870720
 H        -5.6422352399        3.4831573895       -2.5308295604
 H        -7.0480600704       -0.9859822890       -3.2208443262
 H        -7.4920867607        0.5503248113       -3.8123514495
 H        -8.1645727021        0.1289499006       -2.4244054922
 H        -4.6345165371        0.1522744496       -0.7678085981
 H        -6.3064964831       -0.3568129677       -0.3766310261
 H        -5.2448810200       -1.4233336369       -1.3184758722
 H        -6.6404848692        5.0192224070       -0.8913934325
 H        -6.8724207295        3.6251663969        0.1173969287
 H        -3.6815717944        6.3402525447        3.9285643850
 H        -4.5794758904        5.3181288432        5.0287369928
 H        -3.0478134962        5.8266098189        1.3156240716
 H        -3.7574764754        7.2222368176        2.1243433690
 H        -3.8424773370        7.0277777044        0.3538935723
 H        -7.1816812318        6.1336446583        1.5927408571
 H        -6.1584952394        7.6604830544        1.7106508255
 H        -6.6017910539        6.9218084003        0.2182039190
 H        -2.1743675976        4.5729072293        4.4225850067
 H        -2.7353993515        4.0205866395        2.8524384492
 H        -2.2359424316       -0.2394499437        2.0766262320
 H        -3.5250990601        1.0325690087        2.0024595951
 H        -1.4820256772        2.2171744044        6.4656100710
 H        -0.7079018791        2.9733725399        5.0715234951
 H        -0.4580115940        1.1853903499        5.5582951533
 H        -2.8514123229       -0.4988529208        4.2762174579
 H        -3.2038823088        0.3865358746        5.9483859616
 H        -4.0861734351        0.5195813306        4.4971332058
 H        -2.6229319893        0.8935059761       -0.1939704552
 H        -2.0757996050        2.3821331560        0.5771957790
 H         2.5378378403        3.6248117938        1.1016578569
 H         1.5080701720        2.7160417128        2.1565624720
 H         0.8460112405        2.3712850101       -2.6042087992
 H        -0.8271869031        1.8429392090       -2.1583579145
 H         0.5664206738        0.7391955565       -2.0370123659
 H         0.6609314188        4.3254785143       -0.2580705233
 H        -1.0040081733        3.6565657799       -0.4547679093
 H        -0.3381631357        3.5293631253        1.0332303893
 H         4.1724561181        2.7163082838        2.3804617249
 H         4.2395080673        1.6093744917        0.9534788513
 H         5.0006414395       -1.9677527872        3.1639979195
 H         4.7932226119       -2.4896029085        4.9125294335
 H         5.5505811783        0.0808369503        4.3311729418
 H         4.6748158073        0.4828644138        5.7757328450
 H         4.6951904678        1.6354483390        4.4537274635
 H         1.2044668546        0.4778740097        4.4515732243
 H         2.1694246135        0.8278726501        5.9436188916
 H         2.0208932879        1.9461402218        4.5920299997
 H         4.2324957220       -4.4193281254        4.1009059494
 H         2.6904570565       -3.7196192613        3.3491374340
 H         3.3809212372       -5.4855965305       -1.7075022738
 H         2.6063167221       -4.1220426340       -2.2769006378
 H         5.2233330701       -6.0445057906        0.1591922405
 H         3.7115173530       -6.9383655277       -0.0168939412
 H         4.6982733526       -6.8559080893        1.5346242294
 H         1.4444913870       -5.0864586296        2.1722346593
 H         1.9043289942       -6.5577487380        1.0926072805
 H         2.5055760571       -6.4091419084        2.7261527079
 H         5.3487008812       -4.0909333929       -2.3979057571
 H         5.1501164498       -3.8230674702       -0.6881769312
 H         1.3501466440       -0.7624231689       -5.0463325448
 H         2.4835407698       -1.8812061837       -5.6800054348
 H         3.7221829370        0.5699683707       -3.9744739080
 H         5.2886853948        0.1421153483       -3.0229929579
 H         3.8121587229        0.5427200470       -2.2797253294
 H         5.4956871555       -2.8113337558       -3.9740355714
 H         4.1200442962       -2.7687436746       -5.1441440572
 H         5.3100580592       -1.3740247802       -4.8892973019
 H        -0.1651801282       -2.8238202417       -4.3840064126
 H         0.1102793238       -2.6122014332       -6.1010807475
 H        -2.8761341296       -5.4396045617       -6.9908136391
 H        -1.6226318058       -4.7965431120       -8.2044394268
 H        -1.6013057238       -6.5451043956       -7.6898181431
 H         0.6124422557       -5.0146804823       -8.4541885798
 H         2.1664798220       -4.9039190686       -7.8807856085
 H         1.1410428215       -3.4763304545       -7.7187956622
 H         0.4042904343       -7.2078877643       -7.0525505468
 H         2.0370508491       -6.8890043332       -6.5089832912
 H         0.7584321482       -7.1491763644       -5.2919421684
 Na        1.9637875585       -1.0553159331       -0.1086410010
