155

 C        -3.9116881260        0.2648720109       -4.2229919098
 C        -4.3450704601        0.8725176350       -2.8738652559
 C        -5.5779960322        0.3920580280       -2.0558442853
 C        -6.3596215601        1.5893171239       -1.2919814341
 C        -5.9218267234        3.0432130117       -1.6245430630
 C        -6.5074696030       -0.3920391328       -3.0567891959
 C        -5.0932966430       -0.4826922728       -0.8373900193
 O        -3.5181215700        1.5841647260       -2.3467447993
 O        -7.2168588505        1.3444527566       -0.4468651284
 C        -6.4422333953        4.0168923457       -0.4770023636
 C        -5.3961115158        4.1390027885        0.7027915533
 C        -5.3803782289        5.4007321915        1.4631890865
 C        -5.7567998489        5.0982064275        3.0674202451
 C        -4.5553553157        4.9333355147        4.0656224160
 O        -4.4705260639        3.3462078117        0.8328098790
 O        -6.8363803063        4.6898312723        3.3554235211
 C        -4.0880641711        6.1818545146        1.2907506984
 C        -6.5351378185        6.3148816709        1.0487255856
 C        -3.5136092058        3.8250608749        3.7661330719
 C        -3.8290605909        2.5063350750        4.4072087600
 C        -2.5626627726        1.5273965619        4.6603008473
 C        -1.6775089737        1.5193021210        3.3529755652
 C        -2.3357673758        1.0439783651        2.0964156877
 C        -1.6823161382        2.1253041370        5.7975266332
 C        -2.9991769275        0.1210170675        5.0287594495
 O        -5.0063938432        2.2567606400        4.7059602643
 O        -0.6197737925        2.1410001864        3.3207953813
 C        -1.9178509167        1.8800158392        0.8681546349
 C        -0.5879546588        1.3881929959        0.3092481391
 C         0.4106634464        2.3478284388       -0.5129618336
 C         1.8270028933        1.9826568115        0.0172677376
 C         2.1589906128        2.4778177177        1.4586014046
 O        -0.2860646326        0.2318550304        0.4380192707
 O         2.5135260099        1.1908000977       -0.6325583144
 C         0.1844688931        1.8694872028       -1.9728761888
 C         0.0478730051        3.8528826674       -0.4131226393
 C         3.2624829759        1.8135884212        2.1157348072
 C         3.0734579434        0.3095866164        2.5905578204
 C         3.0957972662       -0.0601652835        4.1478307021
 C         2.8798355015       -1.5510387465        4.2712123617
 C         4.0510275197       -2.4475517824        3.9496944441
 C         4.5337190839        0.4945979785        4.5628016993
 C         2.0615400281        0.7285763129        5.0503987751
 O         2.9420031959       -0.6030475782        1.7784683912
 O         1.7547210009       -1.9610190692        4.4032732284
 C         3.6851031200       -3.9001938464        3.4813712998
 C         4.0362933976       -4.1747258413        2.0800058608
 C         3.2295102345       -5.1910006424        1.2503088132
 C         2.7079303720       -4.1549295057        0.1588767637
 C         3.2328628232       -4.3068668423       -1.2374848091
 O         5.0597762501       -3.7610580903        1.5253358363
 O         2.0155724184       -3.2630884074        0.6597767790
 C         4.2138310580       -6.3494385386        0.7179144204
 C         2.0611001065       -5.8996329417        2.0295726841
 C         4.6177474687       -3.6102579239       -1.4242143687
 C         4.5737229846       -2.1223124868       -1.9114804945
 C         4.1409163318       -1.6324165648       -3.4195478968
 C         2.4875127847       -1.6170842901       -3.6049197926
 C         1.9758436893       -1.4460481488       -5.0104595270
 C         4.4462021438       -0.1185221632       -3.5247476569
 C         4.9784128106       -2.5239743699       -4.3817485413
 O         4.9279582377       -1.2815016218       -1.0961724309
 O         1.8072118650       -1.4852259909       -2.6175328942
 C         0.8658868211       -2.3807345350       -5.3832935016
 C         1.4818564084       -3.7869555486       -5.5519492342
 C         0.9763966307       -4.6982542639       -6.7637350923
 C        -0.6702144585       -4.9010071741       -6.6949618997
 C        -1.3061858767       -6.1031105414       -7.4138255828
 O         2.4481298247       -4.1431409396       -4.9600191770
 O        -1.3138938051       -3.9372082488       -6.1959705314
 C         1.4537533495       -3.8787621456       -7.9541762850
 C         1.5723978176       -6.1090655607       -6.6637432726
 H        -4.5902060444        0.1378422159       -5.0035351545
 H        -2.9953853888        0.8155976839       -4.6538836551
 H        -3.6019759998       -0.6974522400       -3.9138560372
 H        -4.8257498371        3.1597642141       -1.6661138359
 H        -6.3084430537        3.2896566375       -2.6222798663
 H        -6.1675576950       -1.3108955289       -3.3718467645
 H        -6.6204093355        0.1555449680       -3.9307343126
 H        -7.4481295965       -0.6413062167       -2.5653339865
 H        -4.2721425394        0.0692758220       -0.2565633599
 H        -5.9060804256       -0.6496043432       -0.1143990996
 H        -4.5915314385       -1.4151652693       -1.2249321376
 H        -6.3152820014        5.0008634647       -0.9990610780
 H        -7.3996553366        3.8471990142        0.0153731922
 H        -3.9911439300        5.8918008064        4.0739104021
 H        -4.9532817287        4.9469064892        5.0720440249
 H        -3.2451387003        5.5605821421        1.4438445269
 H        -3.9475272650        6.8984295393        2.1074033505
 H        -4.1177762649        6.7119963802        0.3780659591
 H        -7.5980952810        6.0539310084        1.2595540432
 H        -6.3947316976        7.2576333638        1.5697952619
 H        -6.4611612575        6.5457529789        0.0041120740
 H        -2.5615566376        4.2169761863        3.9954632207
 H        -3.5417193906        3.5748206436        2.6574215323
 H        -2.3643936837        0.0089589411        1.9746290399
 H        -3.4338564707        1.2816198978        2.2651631419
 H        -2.3444268444        2.0559740555        6.6515773409
 H        -1.5089457120        3.1655556061        5.7888910704
 H        -0.7186861153        1.6274596183        5.9355121494
 H        -2.2248249999       -0.3549092735        5.7042560579
 H        -3.9861260009        0.1738572152        5.6357045834
 H        -3.1504033764       -0.4928927969        4.1670867424
 H        -2.7034252129        1.8345248407        0.1155611834
 H        -1.8554202641        2.8634955551        1.2635817889
 H         2.3176575900        3.5924997442        1.3145653730
 H         1.1781855489        2.4176991219        1.9837617971
 H         1.0382773968        2.2898999925       -2.6408306114
 H        -0.7977071472        2.1298445633       -2.2911147838
 H         0.2722113266        0.8120620024       -1.9505231622
 H         0.8334999201        4.3483388374       -1.0108746701
 H        -0.8275258449        3.9763865609       -1.0497183764
 H        -0.0025768562        4.3305080967        0.6037824604
 H         3.5735565827        2.3858708155        3.0159309975
 H         4.0562446334        2.0375774833        1.3277026139
 H         4.7391634644       -1.9339644887        3.1567493392
 H         4.7597180807       -2.6406218243        4.7952386548
 H         5.2361778104       -0.0112378006        3.9604471623
 H         4.6781961938        0.2768511091        5.5898259242
 H         4.6783473007        1.6036103954        4.4413604060
 H         1.0770682156        0.2386074332        4.8483075090
 H         2.3954898486        0.7656238600        6.0513818916
 H         1.9144926600        1.8072064470        4.6723023246
 H         4.0526037287       -4.6787373799        4.1483311455
 H         2.4985598040       -4.0539365316        3.5443283538
 H         3.4349432744       -5.4089571233       -1.5113952176
 H         2.6073640738       -3.9094713220       -2.0213158117
 H         5.0023111475       -5.9000704238        0.2437607177
 H         3.7136609502       -7.0579666743       -0.0074441033
 H         4.4941570205       -6.9831331137        1.5399077399
 H         1.3376509693       -5.1154534017        2.1355497830
 H         1.5340543739       -6.6011262785        1.4068306255
 H         2.3092714545       -6.3386995670        3.0405703719
 H         5.2197791646       -4.1420985785       -2.1276420497
 H         5.1142040629       -3.7796864346       -0.5009198339
 H         1.5919133980       -0.4495243352       -4.9659757689
 H         2.6423422541       -1.5487322358       -5.7841210260
 H         4.3901834754        0.3784981160       -4.5198330271
 H         5.5076737332        0.0669001346       -3.4476396872
 H         3.7903729471        0.5333530683       -2.8696097164
 H         5.9246904567       -2.2864300816       -4.0921938752
 H         4.7652967032       -3.5854339632       -4.2311296573
 H         4.7971422238       -2.2419005026       -5.4826555475
 H         0.1171609281       -2.5356294176       -4.6316541062
 H         0.3665555144       -2.1150341603       -6.2963828874
 H        -1.2677109216       -6.8150888433       -6.5146238308
 H        -2.3259676886       -5.8513617986       -7.6543912458
 H        -0.5872299349       -6.4762939604       -8.1443876197
 H         1.3371680311       -4.4593511523       -8.8479782336
 H         2.4102751060       -3.4854305213       -7.9474075701
 H         0.7604405350       -2.9524364047       -8.1465197308
 H         1.6907720985       -6.5521419366       -7.6608737821
 H         2.5610896784       -6.0695946166       -6.2332368977
 H         0.8855230064       -6.7126086013       -6.1062589235
 Na        1.9866962778       -1.0000392344       -0.2786599736
