155

 C        -3.5771976310        0.4297073522       -3.9662553933
 C        -3.9219152311        0.8319959328       -2.5288499456
 C        -5.2009635369        0.2568897512       -1.8822654702
 C        -6.2217328551        1.3797746068       -1.0911874356
 C        -6.0968943493        2.8589292972       -1.6407537157
 C        -6.1924695514       -0.5132474847       -2.9010483876
 C        -4.5937466483       -0.6780319835       -0.8106881304
 O        -2.9842053939        1.3609468802       -1.8791584857
 O        -7.1799817961        0.9933572929       -0.4336313258
 C        -6.5613261190        3.9647553751       -0.6360128264
 C        -5.5291202552        4.1449684218        0.5603011197
 C        -5.6990737167        5.4156749647        1.4491993183
 C        -6.1227472142        4.9529532890        3.0075469783
 C        -5.0302920805        4.6779681998        4.1363508676
 O        -4.8169117891        3.1885515397        0.8665426888
 O        -7.2209893791        4.5996784056        3.2830363286
 C        -4.2752121599        6.1165959784        1.4783057827
 C        -6.8018979620        6.3650562091        1.0313315594
 C        -3.8692054829        3.6704054169        3.7677859980
 C        -4.0487643772        2.3056105781        4.4436561989
 C        -2.7157495353        1.4938999896        4.6572036199
 C        -1.7972548359        1.6468880540        3.4578900862
 C        -2.1935811540        0.9167759820        2.1881852444
 C        -2.0141264700        2.0391361115        5.8674181845
 C        -2.9363996178       -0.0358828604        4.9067717427
 O        -5.1316127127        1.8772330555        4.8211653570
 O        -0.7417838856        2.2672200387        3.4860874135
 C        -1.7670575146        1.6305562428        0.8268952054
 C        -0.4464809251        1.0846057065        0.2047747421
 C         0.4658542227        2.2196363427       -0.5185235879
 C         1.8995573330        1.9914172000        0.0032776428
 C         2.1351233888        2.3260564673        1.5304848282
 O        -0.1807631632       -0.0767391643        0.1205721983
 O         2.8029180346        1.5383435741       -0.6639069605
 C         0.4548497302        1.7566176464       -2.1126245827
 C        -0.1017064937        3.6555149892       -0.4327092969
 C         3.4778516448        1.7319053466        2.0418473192
 C         3.1904442302        0.2634927203        2.5922347788
 C         3.2073651863       -0.0198874243        4.1941871589
 C         2.9005047329       -1.5918714303        4.4243527113
 C         3.9875480055       -2.6428017304        4.2221721865
 C         4.5402133402        0.3308319523        4.7291011472
 C         2.0880166249        0.7929156650        4.9205902547
 O         2.6539986912       -0.5931940019        1.8464272833
 O         1.7316281493       -1.9057557717        4.6425639541
 C         3.5023867342       -3.9650584732        3.6259935182
 C         4.0265614756       -4.3071340953        2.2352491263
 C         3.1079000625       -5.0451091789        1.2468763585
 C         2.6693418784       -3.9138923861        0.0996118466
 C         3.1305747247       -4.1318374823       -1.3015168711
 O         5.1842924783       -4.1165027283        1.9218624306
 O         1.8804131141       -3.0367912278        0.3849509275
 C         3.9469904089       -6.1241732953        0.7024911132
 C         1.7661216416       -5.5041548319        1.7679003432
 C         4.5465830080       -3.4159732037       -1.4253525019
 C         4.2555481539       -1.9381085931       -1.8888306243
 C         4.2359090265       -1.4449790110       -3.4088146174
 C         2.6967840680       -1.4098544078       -3.7553445385
 C         2.1766407868       -1.0091196532       -5.1646296583
 C         4.9828467299       -0.0850276699       -3.4201342962
 C         4.9334232659       -2.4303838856       -4.4222448919
 O         4.0345230597       -1.1261337921       -0.9787519984
 O         1.8993724863       -1.6400690412       -2.8511718096
 C         1.0859094288       -1.9778155101       -5.7480434318
 C         1.5919347004       -3.4592178243       -5.6763522175
 C         1.2955692131       -4.4353809407       -6.9409952780
 C        -0.3190897533       -4.6930139513       -6.8916373769
 C        -0.9201226253       -6.0536944270       -7.1316204015
 O         1.9885401761       -4.0150193636       -4.6695745581
 O        -1.0460019614       -3.7045604203       -6.8410288685
 C         1.4829551428       -3.6458445766       -8.2792057685
 C         2.2251470183       -5.7333595564       -6.9643079378
 H        -4.4014228866       -0.1632732836       -4.4107662478
 H        -3.2094344440        1.2053492261       -4.5661392385
 H        -2.7241992568       -0.3603920491       -3.8538162513
 H        -5.0799110156        2.9126228054       -2.1034567088
 H        -6.8905667422        2.9212889962       -2.3950685754
 H        -5.7533620715       -1.4003345445       -3.3018237587
 H        -6.5156856431        0.0040599517       -3.7686633733
 H        -7.0393292503       -0.8843919444       -2.2504186857
 H        -3.8576071749       -0.1330810250       -0.2909469896
 H        -5.3144137807       -0.9174024099       -0.0398658862
 H        -4.1398168212       -1.6037201942       -1.3048533404
 H        -6.4013150361        4.9738582807       -1.1088534313
 H        -7.5545115410        3.6694694927       -0.3634843785
 H        -4.6339302667        5.7241122475        4.3722472258
 H        -5.6384182836        4.4159027066        5.0106667814
 H        -3.4161487845        5.4386503290        1.5829331585
 H        -4.2538415002        6.8413530694        2.2627991771
 H        -4.0633369923        6.7198718219        0.5730354357
 H        -7.7819118685        5.9360624701        1.2324168120
 H        -6.9005661064        7.1498230928        1.7683469491
 H        -6.7830033400        6.6628899644        0.0149256829
 H        -2.9213062661        4.0760414907        3.9641789856
 H        -3.9586825966        3.4890848260        2.6590609278
 H        -1.7809176538       -0.0620318725        2.1031224419
 H        -3.2970526549        0.6085887347        2.1501866575
 H        -2.6982818318        2.1648863112        6.7121909829
 H        -1.6144555293        3.0153278158        5.6396260881
 H        -1.0665394538        1.3879107242        6.1054449957
 H        -1.9383229114       -0.4519383416        4.7418156359
 H        -3.1429804038       -0.3657593494        5.9931179563
 H        -3.6491339711       -0.3786936323        4.2512935667
 H        -2.5712513434        1.4196068626        0.0990674675
 H        -1.7788244619        2.6885362701        0.9742843118
 H         2.2093914249        3.4402117630        1.6955953425
 H         1.3647407527        1.9411515072        2.2185530120
 H         1.2454827534        2.4221562874       -2.6366161971
 H        -0.5224069644        1.8760368352       -2.5272629157
 H         0.7480517365        0.7510400769       -2.1064257523
 H         0.5151180118        4.3517012879       -0.9768141473
 H        -1.0387631798        3.5573135121       -0.9380824385
 H        -0.2436320739        3.9189706128        0.6310425440
 H         3.8683478736        2.4804474664        2.7744351781
 H         4.2525965896        1.5731524321        1.2353490683
 H         4.8336718310       -2.2170859147        3.5911745214
 H         4.5412297328       -2.7660302482        5.1704385879
 H         5.4263850934       -0.2045071155        4.3274066224
 H         4.4075054424        0.2250335690        5.8231248924
 H         4.6808828894        1.4140790379        4.5382068562
 H         1.1327924099        0.8300053774        4.4260951999
 H         1.9067930526        0.3574444692        5.8585400844
 H         2.5609935062        1.7776874980        5.0540054381
 H         3.6804123316       -4.9105220787        4.2105193210
 H         2.2959022477       -3.9923525628        3.5904881860
 H         3.2096187781       -5.2333831919       -1.5263962935
 H         2.5417791583       -3.5823229453       -1.9962508125
 H         4.8448761972       -5.7621362501        0.3214747644
 H         3.4321882692       -6.7386851914       -0.1242217776
 H         4.1241100469       -6.7635090057        1.5690378695
 H         1.1321501823       -4.6925087614        2.1012711233
 H         1.3341789188       -6.0195847485        0.8616457884
 H         1.7727622409       -6.2469824870        2.6110096439
 H         5.1805440999       -3.9881772100       -2.0761836857
 H         5.0662434400       -3.3263533257       -0.4726630528
 H         1.6975354768       -0.0102533248       -5.2214076672
 H         2.9564356041       -1.0348006756       -5.8653882014
 H         4.7647681864        0.5184390426       -4.3435377018
 H         6.0563930362       -0.0539848287       -3.4785032720
 H         4.6535945432        0.5378655768       -2.5528450668
 H         5.9807382343       -2.4741915212       -4.2333620863
 H         4.4824013280       -3.4605632238       -4.2505605530
 H         4.6905982334       -2.0728104084       -5.4532708493
 H         0.1935182075       -1.7989789463       -5.1434904716
 H         0.9736777924       -1.7364180888       -6.8446063359
 H        -0.2678845011       -6.6871774593       -6.4568130546
 H        -1.9309320930       -6.0530412584       -6.7915690757
 H        -0.7871320561       -6.3386914775       -8.1655997072
 H         0.9701300810       -4.1110957760       -9.0461422414
 H         2.4410471210       -3.4337036277       -8.6148685565
 H         0.9750644064       -2.6209461647       -8.2872875202
 H         1.8465300535       -6.5896922836       -7.5791384829
 H         3.1931805125       -5.3834320932       -7.3478584785
 H         2.2598906835       -5.9892152441       -5.8727025511
 Na        1.8909927526       -0.8943288455       -0.3995462815
