155

 C        -5.2840008738       -0.2415284148       -5.0351424650
 C        -4.5994653372       -0.0270755011       -3.6652633767
 C        -5.3011714613       -0.5720118218       -2.3295445153
 C        -5.5291774583        0.5768650141       -1.1464962842
 C        -5.8415002347        2.0373421251       -1.5256673668
 C        -6.6323962523       -1.2826107624       -2.5046623485
 C        -4.3525723398       -1.6237134877       -1.6396553839
 O        -3.5289677877        0.5346887835       -3.5479884592
 O        -5.4759132971        0.2001742786        0.0078625106
 C        -6.6741119330        2.8207754632       -0.4446999522
 C        -5.9739699034        3.4529152422        0.7642774380
 C        -6.7976630852        3.5880667686        2.0830862114
 C        -7.1823202372        2.1108148448        2.5028540611
 C        -6.4147017646        1.2621078493        3.7187162508
 O        -4.8978017410        3.9989614944        0.6916190688
 O        -8.1019307411        1.5285858611        2.0263325630
 C        -6.0759906409        4.4741795877        3.1423572338
 C        -8.1313845362        4.3947231619        1.7172663207
 C        -4.9512666484        1.1867365034        3.4129498246
 C        -4.1718422144        0.2575715361        4.3883465048
 C        -2.6065603411        0.6748894149        4.7013499986
 C        -1.9264949434        1.2224778966        3.4080959121
 C        -2.0004281289        0.2766236202        2.1333487524
 C        -2.4968395473        1.7903724007        5.7942242545
 C        -1.8390368103       -0.5126553544        5.1894570252
 O        -4.6922409271       -0.7106810855        4.9571940203
 O        -1.0337091471        2.0925773891        3.3746868700
 C        -2.0712848101        0.9330639074        0.7452837397
 C        -0.6432876144        1.1600417638        0.0941658178
 C        -0.0532081066        2.5195781175       -0.0992202147
 C         1.5187028730        2.5682985036        0.2931202541
 C         1.7517491674        2.8995310352        1.8511459404
 O        -0.0523689483        0.0891529190       -0.0975561211
 O         2.3831441480        2.1780003050       -0.4548946568
 C        -0.3240759418        2.7177150310       -1.6122152740
 C        -0.7869113646        3.7132950406        0.6622343247
 C         2.9583449499        2.2458385852        2.5145076911
 C         2.6679483338        0.7509731277        2.6910538477
 C         2.8347577166        0.1212588690        4.1305545720
 C         2.1273228307       -1.3804919260        4.2371512255
 C         2.9297844135       -2.5430318257        3.5772760293
 C         4.3492746908       -0.0610341628        4.5048362855
 C         2.1399629656        0.9894537392        5.1651841530
 O         2.4033597531        0.0383444811        1.7583522920
 O         1.0201135189       -1.5332596552        4.6319953049
 C         2.3311314691       -2.9342884242        2.2654007573
 C         2.4921149616       -4.3469506026        1.7241842081
 C         1.6585763945       -4.6652809964        0.4417641413
 C         1.9273465986       -3.4108692429       -0.6092452450
 C         2.9653776152       -3.6242226595       -1.6875162885
 O         3.3856572010       -5.1127462508        2.0501074539
 O         1.3148112026       -2.3959290325       -0.4202096452
 C         2.1862364853       -5.9554203296       -0.1412159012
 C         0.0565222174       -4.6336886025        0.7179928971
 C         4.4243786779       -3.1952626995       -1.3693980877
 C         4.6107099166       -1.6608747252       -1.0562345394
 C         5.3860441268       -0.8493344234       -2.1029228778
 C         4.2392086284       -0.3434843662       -3.2256210336
 C         4.7966810568        0.1439085779       -4.6190752256
 C         5.9704797357        0.3875745942       -1.4766859798
 C         6.5620660071       -1.6774475797       -2.8590688562
 O         4.0190169296       -1.1072167962       -0.1162343336
 O         3.0839253720       -0.1549675415       -2.8933215296
 C         4.0188513719       -0.4373807770       -5.7681183165
 C         3.7585365615       -1.9412525640       -5.5860526372
 C         3.1244855189       -2.7266281886       -6.8147451063
 C         1.6571274164       -2.0231910555       -7.0820550151
 C         0.4898479273       -2.6533297684       -6.1742193694
 O         3.8113528120       -2.4020369623       -4.4181538436
 O         1.4914032473       -1.1562349919       -7.8677392199
 C         4.0395729450       -2.4849682798       -8.1040757063
 C         3.0474467830       -4.2119802351       -6.5791801557
 H        -4.9432976758       -1.2682648125       -5.3875955951
 H        -6.3491637755       -0.1408760790       -4.9298781602
 H        -4.9238529334        0.4142883893       -5.7358096929
 H        -5.0401403529        2.6942371245       -1.8014507175
 H        -6.5844852194        1.9399495879       -2.3852435717
 H        -6.5415911560       -2.2963279015       -3.0137936216
 H        -7.3064748852       -0.6990896438       -3.2091713055
 H        -7.0610512158       -1.4569464843       -1.5012974226
 H        -3.3794398292       -1.2172350628       -1.4430121122
 H        -4.8024351017       -1.7623685773       -0.6766930465
 H        -4.2109287609       -2.5890219513       -2.1642350239
 H        -7.4253574834        3.4211264168       -0.9974102011
 H        -7.1641997558        1.9682406815       -0.0411251174
 H        -6.6244488141        1.9197585320        4.5530589099
 H        -6.7974216550        0.2183144668        3.7174452442
 H        -5.1054225837        3.9977866883        3.3651405452
 H        -6.6070279936        4.3946107007        4.1198137573
 H        -6.0113764851        5.4818278033        2.6868419040
 H        -8.8698349735        3.7744897308        1.1813854090
 H        -8.5602895092        4.6033174264        2.7231076311
 H        -7.6927368394        5.2537823368        1.1869999864
 H        -4.4400610619        2.1787821726        3.2758998468
 H        -4.9454285835        0.7714171766        2.4278385505
 H        -1.1183947990       -0.2918064311        2.2665886825
 H        -2.8921646804       -0.3955393391        2.2320995173
 H        -2.8527497060        1.3568755552        6.7489166988
 H        -3.1261404624        2.7334327339        5.7161557691
 H        -1.4950260493        2.0367365406        5.8415399827
 H        -0.7999129901       -0.2759023465        5.2999035890
 H        -2.3133849851       -1.0032975309        6.1510782791
 H        -1.8689716760       -1.3495438756        4.5167188003
 H        -2.5045591829        0.2395362137        0.0064324444
 H        -2.7035404233        1.7999023173        0.9111573562
 H         1.9753996381        4.0028341778        1.9266132375
 H         0.9711466132        2.6450132256        2.5821932005
 H         0.2829798262        3.6670684313       -1.8345057427
 H        -1.3814910978        2.8871892636       -1.7744718152
 H         0.0713414914        1.8814336407       -2.1930446941
 H        -0.3227918675        4.6901714077        0.5288708333
 H        -1.8387289430        3.7933221172        0.3534942718
 H        -0.8076988067        3.6470470790        1.7546706623
 H         3.3062461432        2.7252955662        3.4865427546
 H         3.9045114190        2.3010660229        1.8884326545
 H         3.9938044687       -2.2524004455        3.4284206020
 H         3.0212629379       -3.3523695784        4.3533148825
 H         4.9898157669       -0.2186560914        3.6468487666
 H         4.5010603035       -0.8598959513        5.2132959783
 H         4.7474719303        0.8169637809        4.9497997883
 H         1.1223923249        0.6988376767        5.2786133349
 H         2.6860289081        0.9098684027        6.0269494745
 H         2.0397207638        2.0344752584        4.9886154628
 H         1.2232350148       -2.6688366080        2.1846817513
 H         2.7759944297       -2.1591889028        1.5674540203
 H         2.9810832921       -4.7191862580       -1.9944432828
 H         2.5777951418       -3.0140831841       -2.4927290500
 H         3.2416597466       -5.8147717494       -0.5368082390
 H         1.6115549936       -6.2634411789       -0.9904560974
 H         2.3556118314       -6.7138584379        0.6176412079
 H        -0.2572498197       -3.5859245753        0.8264702637
 H        -0.4445321898       -5.1664464880       -0.1148613761
 H        -0.1807036952       -5.0940062568        1.6457929177
 H         4.9483063246       -3.4684147866       -2.2588223936
 H         4.7593143763       -3.8810226751       -0.6139114560
 H         4.5060336473        1.2037090669       -4.6585496724
 H         5.8447384602        0.0906548292       -4.6688177607
 H         6.2259570066        0.9631987321       -2.3039263213
 H         6.9488692613        0.0928047190       -1.2257750576
 H         5.3483079605        0.9181510879       -0.7435275898
 H         7.2534473181       -1.9939134941       -2.0778137152
 H         6.3858465175       -2.5686760248       -3.4570532070
 H         7.0208883777       -0.8884212354       -3.5321510281
 H         3.0640439296       -0.0547540196       -5.9539317603
 H         4.6129260440       -0.2126812544       -6.6256476945
 H         0.6797018484       -3.5130106260       -5.5962708793
 H         0.0970175486       -1.9684662601       -5.4710011543
 H        -0.2850907648       -3.0037098180       -6.8476956499
 H         3.9105624244       -3.3210363061       -8.7776818735
 H         5.1172440910       -2.6357932958       -7.6643632789
 H         3.7792251418       -1.5122614407       -8.5749942248
 H         2.2584848024       -4.5734074276       -7.1941656154
 H         3.9226189289       -4.7685281920       -6.9375374294
 H         2.8778739151       -4.5485240909       -5.5878803392
 Na        2.0564466134       -0.2582152402       -0.8091185385
