155

 C        -5.6002515786        0.1278340302       -4.6626227579
 C        -5.2300483467        0.0036376125       -3.1855000899
 C        -6.1129279923       -0.8160731412       -2.2130705022
 C        -6.1392110292        0.1854875943       -0.8917365689
 C        -6.3869295067        1.6346308196       -1.3161208923
 C        -7.5806382902       -1.1606102789       -2.6090174981
 C        -5.3361577746       -2.1147738323       -1.8963086339
 O        -4.2524185730        0.6224046650       -2.8176238504
 O        -5.6818099621       -0.2325071539        0.1512158305
 C        -7.1578481806        2.3670321071       -0.2288304243
 C        -6.5249764059        2.6247487533        1.0997378640
 C        -7.5985282852        2.7694393665        2.2163844903
 C        -7.8306174146        1.2569464958        2.4668051828
 C        -6.8944493443        0.4784993153        3.4482153527
 O        -5.3117258101        2.5295422429        1.4061727915
 O        -8.9336940067        0.7555438627        2.1979307083
 C        -6.9450972485        3.5316676103        3.4032203795
 C        -8.8295394400        3.4802175723        1.7321409924
 C        -5.3722601293        0.4572882143        3.1578587161
 C        -4.5792277865       -0.7210566614        3.7087498003
 C        -3.1213386762       -0.3208975870        4.3475399250
 C        -2.1346643842        0.3461306142        3.3151454531
 C        -2.0810296906       -0.1510951112        1.8584063504
 C        -3.3920447684        0.7204033113        5.4946462562
 C        -2.4597026877       -1.6805129948        4.8242403811
 O        -4.9319398651       -1.8790750564        3.5092472198
 O        -1.4759216943        1.2740278762        3.6666112183
 C        -2.0775528953        0.7843016260        0.6073460226
 C        -0.6803052996        1.0454942144       -0.0340574060
 C        -0.2168141476        2.4212211961       -0.4647616328
 C         1.2605486381        2.6099396766        0.2214340420
 C         1.1506068036        3.1208489840        1.6853931873
 O         0.1009017411        0.1288206964       -0.1072626405
 O         2.2200917937        2.4410813038       -0.4829468118
 C         0.0072431515        2.3561831720       -2.0603738537
 C        -1.2924026631        3.5323208414       -0.1835807381
 C         2.3259712587        2.7131455646        2.5610039058
 C         2.5579739834        1.1560085047        2.5813013464
 C         2.5297145691        0.3383032283        3.8856740459
 C         2.0161479224       -1.1374255418        3.6202610488
 C         2.8669401944       -2.1353496260        2.9139640392
 C         4.0486075366        0.3125156127        4.3799422355
 C         1.7118146745        1.0581476446        4.9075224621
 O         2.8504853162        0.6973225379        1.4943033353
 O         0.8572171982       -1.3840578020        3.9006281392
 C         1.8943299918       -2.9158833042        2.0799002962
 C         2.4405712640       -4.0185317206        1.1216579139
 C         1.7709879550       -4.2405601196       -0.2575980971
 C         2.5532721107       -3.1981916099       -1.3000574821
 C         3.8084602352       -3.7431696040       -2.0552724061
 O         3.3967134644       -4.6893552142        1.3598278099
 O         2.0966397159       -2.1053382809       -1.5159581969
 C         1.7985720247       -5.7307422872       -0.8117932123
 C         0.2880074262       -3.8336956984       -0.2216941262
 C         5.1605613815       -3.3284140859       -1.3347450568
 C         5.1125917987       -1.9196317841       -0.8230298986
 C         6.1363985730       -0.8229162059       -1.1709524543
 C         5.5014157493        0.1085782524       -2.3166597887
 C         6.1805699639        0.3268752948       -3.6698825568
 C         6.4185084738        0.0127627832        0.0888688577
 C         7.5046722692       -1.3931778239       -1.4967108298
 O         4.2173493070       -1.6737847723       -0.0252060364
 O         4.3881032169        0.6526507072       -2.1262036918
 C         5.1620785574        0.2798159261       -4.8443537859
 C         4.6893561694       -1.1517599717       -5.1412966958
 C         3.8551909342       -1.4381817955       -6.3887951993
 C         2.6268312208       -0.3905408227       -6.4192583042
 C         1.3386539737       -0.8552145311       -7.1026750058
 O         5.0367902176       -2.1504682788       -4.4631226127
 O         2.7169027405        0.6873812844       -5.8163370790
 C         4.9163819430       -1.1438730616       -7.5780915367
 C         3.4048755899       -2.8624729842       -6.4741236616
 H        -6.5877623664        0.3470054472       -4.7767091109
 H        -4.9865139764        0.8146726783       -5.0812643644
 H        -5.4354389870       -0.8726720571       -5.1193394055
 H        -5.4400563302        1.9288158097       -1.7003844412
 H        -7.0070670931        1.5167977615       -2.2154269239
 H        -7.6365255665       -1.9369629019       -3.3725145446
 H        -8.0888349852       -0.2365237163       -2.8962737460
 H        -8.1748791198       -1.6156403093       -1.7776805625
 H        -4.3513990124       -1.8925009899       -1.4998843853
 H        -5.8515154228       -2.7544909288       -1.1625856125
 H        -5.2035269088       -2.6472305548       -2.8999991050
 H        -7.5726482311        3.3338510706       -0.4830839445
 H        -8.0205960445        1.6531598708        0.0468086403
 H        -7.1907229689        0.9623296100        4.3967986428
 H        -7.1629610927       -0.5844607315        3.4484764887
 H        -5.8986787340        3.3073708117        3.5865894825
 H        -7.3715082139        3.1357378772        4.3222122951
 H        -6.9866335638        4.6105191363        3.2454399966
 H        -9.4139286374        2.8827970489        1.0372753047
 H        -9.5864799672        3.6344003856        2.5001081348
 H        -8.5809188232        4.4688238648        1.3231218984
 H        -4.9173386522        1.4586082688        3.4442179782
 H        -5.1802221251        0.3645702779        2.0940674354
 H        -1.1437409562       -0.7900479977        1.7514966556
 H        -2.8395383597       -0.8904487921        1.7437518861
 H        -3.6274217556        0.0983969811        6.3517710677
 H        -4.3253218597        1.3210109527        5.3080400651
 H        -2.6010976017        1.4223026408        5.6562137402
 H        -1.3499921561       -1.4407896845        4.8459696485
 H        -2.8390954024       -1.9950953925        5.7685935395
 H        -2.5859558004       -2.4899804992        4.1599083252
 H        -2.7322720505        0.3261794993       -0.1433991832
 H        -2.6260181412        1.6687032155        0.9031673774
 H         1.0745477650        4.2506801556        1.6607659987
 H         0.2147349622        2.7498362956        2.0448472663
 H        -0.0329017851        3.4352423865       -2.4319776743
 H        -0.8657470736        1.9904151989       -2.5405792716
 H         0.9206837129        1.8484316203       -2.3527265374
 H        -1.1270633562        4.4700842673       -0.6396461242
 H        -2.2753987780        3.2356842689       -0.5448530846
 H        -1.4565807244        3.6640427950        0.8732523276
 H         2.1953144178        3.0606646394        3.6131034056
 H         3.2210551345        3.1060449833        2.1018001544
 H         3.5307334693       -1.5323823783        2.2780008618
 H         3.4648412346       -2.6595636650        3.6384881437
 H         4.6211667251       -0.2040777852        3.5925785063
 H         4.1883368379       -0.2640117708        5.3254980082
 H         4.3387119590        1.3665901697        4.5455994608
 H         0.6719174098        1.1876866697        4.5055357781
 H         1.7658412162        0.4332935781        5.7655630540
 H         2.1312622136        2.0593048843        5.2736332999
 H         1.0417685784       -3.1283569180        2.6695062325
 H         1.4688305362       -2.0708782563        1.3647933224
 H         3.6973132626       -4.8752787217       -2.2188820456
 H         3.8855447312       -3.2689547133       -3.0176912696
 H         2.8208995127       -6.1670169814       -0.7430850428
 H         1.5073500495       -5.6902663350       -1.8591909483
 H         1.1692981736       -6.2731570038       -0.0955288552
 H         0.1805258096       -2.7863370142        0.1189492284
 H        -0.1824361715       -4.1609805825       -1.1332447115
 H        -0.1795591925       -4.4525408468        0.5797643625
 H         6.0491135286       -3.4255704442       -1.9696751140
 H         5.2993627583       -3.9736012439       -0.4356545833
 H         6.7943404538        1.2827821983       -3.6903799354
 H         6.8636091003       -0.4936161101       -3.8835566617
 H         7.0032221021        0.8949119670       -0.2557295491
 H         7.2003391626       -0.4118877632        0.7708145235
 H         5.4970840503        0.3794778609        0.6293077224
 H         7.9172506168       -1.9247384903       -0.6943016445
 H         7.3906283469       -2.1982235957       -2.2198280829
 H         8.2471547032       -0.5854903653       -1.8740325759
 H         4.2805423932        0.8288993011       -4.7127345269
 H         5.7222984144        0.7073301204       -5.6712451742
 H         0.4332202982       -1.1937722394       -6.5469837117
 H         0.8699617506       -0.0619835140       -7.6397737754
 H         1.3735914655       -1.7026151378       -7.8602014167
 H         4.3107409100       -0.8760489864       -8.5637683544
 H         5.4944499756       -1.9610707151       -7.8128931598
 H         5.4298631636       -0.1405190647       -7.3392195057
 H         3.4284857597       -3.1187311100       -7.5732570086
 H         4.1828811459       -3.5408664668       -5.9889726223
 H         2.5072780756       -3.1886850943       -5.9451487995
 Na        2.5179027883        0.1051622084       -0.6868937317
