155

 C        -5.5690795184       -0.0165932554       -4.6717887345
 C        -5.2254018462       -0.0490813561       -3.2230387411
 C        -6.1232756680       -0.8909733148       -2.2865143514
 C        -6.1056281992        0.0235682572       -0.9241696955
 C        -6.3693196778        1.6347595310       -1.1617732334
 C        -7.6150067559       -1.0297074201       -2.6202480914
 C        -5.3074479096       -2.2663272454       -2.1332044459
 O        -4.2531937559        0.5897752308       -2.7809903117
 O        -5.7074009864       -0.4025659512        0.1266275502
 C        -7.3524841206        2.2614130932       -0.2789430050
 C        -6.6715451088        2.6259855148        1.1019448725
 C        -7.6261721870        2.6463003042        2.4737954518
 C        -7.8684379961        1.1383545700        2.6480497139
 C        -6.9366412221        0.2832672472        3.4835286935
 O        -5.5261760860        2.8486918341        1.0342503483
 O        -8.7459174837        0.6280161564        2.0548574085
 C        -7.0419076431        3.4875080186        3.7297705747
 C        -8.9116553209        3.3886741333        2.0588774243
 C        -5.4957943669        0.4754862182        3.0159845852
 C        -4.6752792939       -0.7367626761        3.5848748381
 C        -3.1388991309       -0.4006271541        4.1459755268
 C        -2.1407918566        0.1149694786        3.1406812155
 C        -2.0152137731       -0.4727280932        1.7312822914
 C        -3.3670328553        0.4507365248        5.3861084041
 C        -2.5444367569       -1.7584121102        4.6195214967
 O        -5.1164466262       -1.8154865533        3.8095808770
 O        -1.3181640100        0.9717889229        3.4689636856
 C        -2.0099062840        0.7112329494        0.6850654251
 C        -0.6727311344        0.9234628801       -0.0015516537
 C        -0.2417965182        2.4089975682       -0.6436919256
 C         1.0949631988        2.6615633443        0.1336329337
 C         0.9680859947        3.0456266636        1.6442929518
 O         0.2396956572        0.0842725365        0.0993122791
 O         2.2011121605        2.6558863080       -0.3831259638
 C         0.0407460876        2.0667420592       -2.1901295167
 C        -1.1865129024        3.6256858955       -0.4759433809
 C         2.2455389046        2.6868784646        2.3130190944
 C         2.5716509107        1.2106985359        2.6519124121
 C         2.4983054575        0.3963018322        3.9681179429
 C         1.8747232698       -0.9831289726        3.5637101603
 C         2.7162534500       -2.0307764809        2.7677469995
 C         3.9459998202        0.2760401247        4.4618878558
 C         1.6274999540        0.9909919733        5.1312949469
 O         3.0922895910        0.5608398015        1.7615584542
 O         0.7273073614       -1.2007369747        3.8729549802
 C         1.7528724288       -2.9494926296        1.9040900298
 C         2.4331731542       -3.9132393356        0.9574304506
 C         1.7337047919       -4.2787770122       -0.4094717197
 C         2.3760657438       -3.2234887362       -1.3731579799
 C         3.6551336570       -3.6132059398       -2.1258716626
 O         3.5170860274       -4.5093609701        1.1394811543
 O         2.0525887520       -2.0200202801       -1.2763249772
 C         1.9835704291       -5.8090671178       -0.6854065390
 C         0.2065039593       -3.9659538383       -0.4221044633
 C         5.0282400771       -3.2488224340       -1.4352766730
 C         5.0768387023       -1.8508692535       -0.7329564343
 C         6.1904777245       -0.7811620054       -1.0063755489
 C         5.6338298819        0.1433984217       -2.1378343971
 C         6.3830788575        0.2890462534       -3.4856011550
 C         6.2721343457        0.2168815379        0.1511771366
 C         7.4667291030       -1.4468369973       -1.5079900877
 O         4.3241649921       -1.6457951144        0.2117464739
 O         4.5965662757        0.7137455318       -1.9137271183
 C         5.4326555824        0.3709013308       -4.6937263590
 C         4.9007394379       -1.0801466811       -4.9883386603
 C         4.0635479077       -1.2127488723       -6.3830720212
 C         2.6690310972       -0.2910684411       -6.4062857868
 C         1.5074428324       -0.6476304521       -7.3104101238
 O         5.0617001656       -2.0315912944       -4.3167710134
 O         2.6383677811        0.7586091175       -5.7913533727
 C         4.8338022218       -0.7191199127       -7.6407941966
 C         3.5630481554       -2.6745221265       -6.5764072613
 H        -6.5403538985        0.6068393028       -4.7197184101
 H        -4.6994550888        0.5196081964       -5.2366846025
 H        -5.8390771604       -1.0144156801       -5.0733481450
 H        -5.3867453373        2.2291405477       -1.1279352576
 H        -6.7517425845        1.6382122269       -2.1987382954
 H        -7.6926671944       -1.3491107334       -3.6354259110
 H        -8.2469972010       -0.2068620910       -2.3603288579
 H        -7.9959222343       -1.7949138517       -2.0480810030
 H        -4.2948247761       -2.0720779638       -2.0290642617
 H        -5.6033893762       -2.7995021850       -1.2865324223
 H        -5.4497318763       -2.7926260515       -3.0572270896
 H        -7.7651556774        3.1921018724       -0.7306923252
 H        -8.1361941643        1.6063026726       -0.0421527915
 H        -7.0261079953        0.5462864841        4.5469025352
 H        -7.1423311138       -0.7758805084        3.3308694108
 H        -6.2737947955        3.0483683021        4.3796006180
 H        -7.8918326791        3.6505795616        4.3907139262
 H        -6.5613144607        4.4462657419        3.4315440966
 H        -9.5072800489        2.8047187362        1.3634907160
 H        -9.5148672994        3.6304283329        2.9601738803
 H        -8.8074923993        4.4054385689        1.7090862548
 H        -5.1168912883        1.4500369369        3.1924559023
 H        -5.3844315097        0.3057746739        1.9058547448
 H        -1.1281700922       -1.0466099809        1.5836845569
 H        -2.8725137978       -1.1680526242        1.4971872325
 H        -3.9141375417       -0.0899651471        6.1623091120
 H        -3.8357660210        1.3339345228        5.0737781155
 H        -2.3675662215        0.7341621413        5.7064159534
 H        -1.4872225452       -1.7808726217        4.6618219541
 H        -2.9896820105       -1.9863966458        5.6938529619
 H        -2.9408289490       -2.5229654065        3.8596185109
 H        -2.6428880232        0.3803271969       -0.1609515371
 H        -2.5185353886        1.6397056700        1.0099047472
 H         0.7059652091        4.0988674847        1.7286521636
 H         0.0816116492        2.4092086625        2.0223816106
 H         0.3061244114        2.9436284508       -2.7606186589
 H        -0.9248363732        1.7912456732       -2.6576337075
 H         0.8180432700        1.2742232960       -2.2399735683
 H        -0.5333202242        4.5064609437       -0.7111170512
 H        -1.8629816987        3.6580039161       -1.3464150095
 H        -1.7493963869        3.8325834904        0.4811546768
 H         2.4920270395        3.1633705698        3.2664637706
 H         3.0245208470        2.9825127237        1.4944153000
 H         3.4774822836       -1.5502400064        2.1310318942
 H         3.2696082722       -2.7718940377        3.4514088591
 H         4.5894502449       -0.3166897953        3.8191595995
 H         3.8015996551       -0.3349795605        5.3350282853
 H         4.3041111967        1.2257081975        4.7650545077
 H         0.6290178827        0.5257497338        5.0353293393
 H         2.0894424962        0.8705955888        6.1491033241
 H         1.4965913191        2.0469295781        4.9819990230
 H         1.1292827765       -3.6983828441        2.5701530693
 H         1.0163397818       -2.4247099069        1.4752703721
 H         3.6185747040       -4.6640372208       -2.1952448456
 H         3.8030143129       -3.1492458218       -3.1446373783
 H         3.0141078031       -6.1835509682       -0.8030842511
 H         1.5408611922       -5.9888300584       -1.6818269418
 H         1.4607403986       -6.2035106878        0.1561066109
 H         0.0578428691       -2.9221212298       -0.3707709223
 H        -0.2179902387       -4.4230256012       -1.3499144865
 H        -0.2813482675       -4.4076267578        0.3831624757
 H         5.8405488669       -3.4127231834       -2.1123313892
 H         5.1750715453       -3.7967815847       -0.5269435404
 H         6.8695968580        1.2145604806       -3.4189932165
 H         7.1513048170       -0.4579462259       -3.7282253727
 H         6.8866470876        1.0235392529       -0.0131706140
 H         6.6873257505       -0.1574332306        1.0085431213
 H         5.2806354036        0.6100042799        0.2661851325
 H         7.9619519818       -2.2185279363       -0.8235838449
 H         7.4256503491       -1.9549544420       -2.4425363550
 H         8.1295728428       -0.6296209439       -1.5051125175
 H         4.5319183040        1.0363048632       -4.5525787752
 H         6.0557712388        0.7645182525       -5.4795947614
 H         0.6417484996       -0.8192615910       -6.7515143352
 H         1.0630124564        0.0713959223       -8.0130592569
 H         1.5533065770       -1.5566882349       -7.8071815771
 H         4.3317872494       -1.0051330403       -8.4684599148
 H         5.7788263959       -1.4109929371       -7.6575363213
 H         5.0445375941        0.3033267887       -7.7098112038
 H         2.9045741400       -2.7653894087       -7.4004575303
 H         4.2777107004       -3.4439087039       -6.6873037019
 H         3.0369511378       -2.9081315106       -5.6252468233
 Na        2.7284539753        0.2213935948       -0.5695342075
