155

 C        -5.5746395844       -0.1003179432       -4.9744193385
 C        -5.1352705111       -0.0534173772       -3.4584716288
 C        -6.0485285609       -0.8074096392       -2.3242052455
 C        -6.0387698890        0.0018652217       -0.9207085762
 C        -6.3523725209        1.5179609000       -1.0946749781
 C        -7.5158892650       -0.9335876369       -2.8546576345
 C        -5.5215224886       -2.1892776577       -1.9980783084
 O        -4.1135501527        0.4926335466       -3.1415479265
 O        -5.8134184386       -0.5915791166        0.1056486485
 C        -7.4078365612        1.9512026463       -0.0504615645
 C        -6.8757173760        2.7318418188        1.1845845591
 C        -7.6984976889        2.5651719929        2.4696523188
 C        -7.8767372675        1.0585942301        2.6934730621
 C        -6.9543639689        0.3574180767        3.5917091228
 O        -5.8306528212        3.3762139783        1.1550107137
 O        -8.7659895029        0.4668969597        2.0401203459
 C        -6.8345430480        3.2075618258        3.5405612875
 C        -9.1597959098        3.2859269544        2.3646425870
 C        -5.4610780127        0.3609069832        3.1096200854
 C        -4.6335289575       -0.8199549215        3.7148547599
 C        -3.0926689199       -0.6575062472        4.0431875296
 C        -2.1677485249       -0.0013464205        2.9798959286
 C        -2.2463438172       -0.4506243257        1.5449084086
 C        -3.0123443671        0.3822495910        5.2869835994
 C        -2.5731831306       -2.0365154989        4.4433709486
 O        -5.1625808104       -1.9161175340        3.9307186541
 O        -1.4219009884        0.9102171815        3.2643803068
 C        -1.9467543570        0.6835331640        0.5072166362
 C        -0.4898799131        0.8563192549        0.1111990110
 C        -0.1769856877        2.2266640831       -0.7491333441
 C         1.1069758254        2.7047775253        0.0959590394
 C         0.9318022848        2.7599840761        1.7046578263
 O         0.3307355052       -0.0114003700        0.2373706791
 O         2.1602075489        2.8065892173       -0.4619330069
 C         0.1590169403        1.7947249694       -2.1171639688
 C        -1.3624202856        3.2532824718       -0.6370043192
 C         2.2163241751        2.6868917698        2.6293777965
 C         2.6606054582        1.2004677206        2.6734414505
 C         2.4607100547        0.4256667474        3.9835770015
 C         1.7035099662       -1.0342751054        3.6074521444
 C         2.4934556591       -2.1088063128        2.8605221426
 C         3.8412118466        0.0842043234        4.5924044264
 C         1.5623500247        1.1519152583        4.9576239761
 O         3.2840073405        0.6570849029        1.7796720312
 O         0.5313113731       -1.1847048251        3.8213006523
 C         1.6040674242       -2.8713102528        1.9210725717
 C         2.4459041331       -3.7974057724        0.9832830622
 C         1.6647728138       -4.2567077967       -0.4069890927
 C         2.3575033974       -3.1315388649       -1.3131946419
 C         3.6460963666       -3.2434858856       -2.1261072128
 O         3.5772978007       -4.0796135402        1.2815081612
 O         1.8811619462       -2.0340243674       -1.2584029470
 C         2.1391872373       -5.6212234222       -0.7975826077
 C         0.1760485272       -4.1108802346       -0.4868234407
 C         5.0063924251       -3.1962558990       -1.3848373412
 C         5.0456940627       -1.8970841643       -0.6486870717
 C         6.1818181804       -0.8588678155       -0.9444573163
 C         5.5867523630        0.0934416237       -2.2343619190
 C         6.3753051513        0.4320475115       -3.4950920596
 C         6.4202955632        0.0249691239        0.2982033438
 C         7.6087977839       -1.4995298501       -1.1529748072
 O         4.2324627061       -1.6106705294        0.1806919174
 O         4.5406063164        0.6862122941       -2.0949055888
 C         5.4545946122        0.5753960769       -4.7419636858
 C         4.8995440661       -0.7815817109       -5.1268912293
 C         4.1242796366       -1.0289363528       -6.3833983482
 C         2.8088641292       -0.1132180300       -6.3348425334
 C         1.7435540153       -0.4279338208       -7.3827589751
 O         5.0516063942       -1.7620333060       -4.3381474018
 O         2.7257654417        0.8176606950       -5.5954577934
 C         4.8248324556       -0.5063042143       -7.6413335024
 C         3.9025467381       -2.6063459653       -6.5082296311
 H        -6.3298379300        0.6009553864       -5.1768351132
 H        -4.7155622723        0.0899719814       -5.5291130618
 H        -5.9660280303       -1.0188663408       -5.1754547903
 H        -5.4601184697        2.0921911585       -0.8858768541
 H        -6.6711368468        1.6332025203       -2.1405135703
 H        -7.5383547302       -1.3764838619       -3.8751809793
 H        -8.0341664770        0.0449621737       -2.8319224395
 H        -8.1914706728       -1.4902962106       -2.0938987235
 H        -4.3844519524       -2.2519799642       -1.6620451750
 H        -6.1543517030       -2.5115048831       -1.1059530895
 H        -5.7132203031       -2.8297115830       -2.8603756214
 H        -8.1001373177        2.6850854175       -0.4381521635
 H        -8.0435160438        1.1499472557        0.4270596241
 H        -6.9654772788        0.6676228261        4.6367640782
 H        -7.2612066459       -0.6935162106        3.5245161901
 H        -6.0525686278        2.5596248214        3.9188159651
 H        -7.4018332615        3.7814296232        4.3409699822
 H        -6.1755265282        3.9603541044        3.0825525912
 H        -9.7502721523        2.8395340264        1.5393805809
 H        -9.6860432506        3.5269285382        3.2653241640
 H        -9.0128564427        4.3432061132        2.0102028611
 H        -4.9274605901        1.2668869279        3.5210004102
 H        -5.3921582125        0.3954900433        2.0458650429
 H        -1.4271262877       -1.2180045062        1.5059468941
 H        -3.1596598618       -0.9463486941        1.2986327521
 H        -3.9686200014        0.3417745413        5.8185147540
 H        -2.8286460820        1.4060769841        4.8556530143
 H        -2.1941924442        0.0864728386        6.0066884825
 H        -1.6775059032       -1.8644999103        5.1013524586
 H        -3.2540963465       -2.5152696251        4.9989075638
 H        -2.3333031089       -2.5170728389        3.5210591710
 H        -2.6465040380        0.6479100655       -0.3354983322
 H        -2.2094946337        1.6080759686        1.0500969372
 H         0.6638882729        3.8310028668        1.7179496990
 H         0.1458114311        2.1985575562        2.0975592195
 H         0.8035720556        2.5409933002       -2.5366729330
 H        -0.7268753258        1.7042303512       -2.7677171508
 H         0.6645275474        0.8224173230       -2.1140895244
 H        -1.1892695013        4.2515778442       -1.0504692813
 H        -2.3240398061        2.9165022405       -1.0969665993
 H        -1.4899322774        3.3574827319        0.4371852504
 H         1.9148725765        3.0132048506        3.6273864656
 H         2.9870334154        3.3115029805        2.3519798808
 H         3.4206353354       -1.8317942819        2.4016878177
 H         2.7140315836       -2.8797728228        3.5242422956
 H         4.3868176853       -0.2162221983        3.7408922432
 H         3.8864639602       -0.6969545333        5.3271698987
 H         4.2748124353        1.0639036848        4.9468745633
 H         0.5481306169        1.0901335873        4.7237313206
 H         1.6379760169        0.5806471857        5.8826710670
 H         1.8718959314        2.1570155793        5.1208061705
 H         0.8912943314       -3.4972136209        2.3294619779
 H         0.8818790299       -2.1380934726        1.3021287623
 H         3.7615676384       -4.1504194702       -2.7755339591
 H         3.6971005432       -2.3685182077       -2.7268558167
 H         3.1575338768       -5.6285172418       -0.5924200090
 H         2.2234443749       -5.6695526821       -1.8453756753
 H         1.5711299997       -6.4295172233       -0.3174174391
 H        -0.0728708375       -3.0266044555       -0.6819955931
 H        -0.0660934898       -4.6301256805       -1.3876037799
 H        -0.4644955111       -4.5246361770        0.3785899588
 H         5.7324899051       -3.1321493796       -2.2338680038
 H         5.2279750127       -4.0476559963       -0.6883217525
 H         7.0674494713        1.3404055398       -3.3238416362
 H         7.0127779879       -0.4651811552       -3.6617338515
 H         7.4384726725        0.6040936415        0.1801454811
 H         6.6969897181       -0.6273565542        1.1863964274
 H         5.7251290817        0.8231306463        0.5436917404
 H         7.8803292766       -1.9642404045       -0.2577311377
 H         7.6322434419       -2.2708433223       -1.9792513445
 H         8.4387917017       -0.7999923545       -1.2224949126
 H         4.7097751371        1.3494944289       -4.4691627489
 H         6.0817849019        0.9126664258       -5.6306014291
 H         0.6832123038       -0.7727483306       -7.1767769195
 H         1.4638771919        0.5273492622       -7.7733003045
 H         2.0149065622       -1.0597903687       -8.2393749357
 H         4.4026408072       -0.9655341662       -8.5817303350
 H         5.9085380205       -0.5561090446       -7.6313379173
 H         4.6158405968        0.5900799928       -7.7223113430
 H         3.4341701018       -2.8842844462       -7.4674285222
 H         4.9284944859       -3.0277370853       -6.5166822837
 H         3.3426815502       -3.0193875776       -5.7214087002
 Na        2.7519424688        0.2096767176       -0.4962576843
