155

 C        -4.8624828379       -0.6545283362       -5.1381897748
 C        -4.8254695523       -0.1879762042       -3.6930728138
 C        -6.0593941183       -0.5619390440       -2.6748538428
 C        -6.0327226785        0.2429239447       -1.2876756132
 C        -6.8764456035        1.5202104271       -1.0177290123
 C        -7.3995992793       -0.3948736218       -3.4614171687
 C        -5.8803187643       -2.0827097824       -2.2240305499
 O        -3.8632775548        0.3985036722       -3.2820520773
 O        -5.2992789213       -0.1904449421       -0.4061937484
 C        -7.6797207483        1.5587476897        0.2310652976
 C        -7.0355351242        2.2063411416        1.4549714581
 C        -7.8916920181        2.1388950919        2.7212748539
 C        -7.8426117706        0.6067476077        3.2685911877
 C        -6.5669461098        0.2342055450        4.1456319106
 O        -5.9672319959        2.8541716478        1.5731150055
 O        -8.6739004156       -0.1866220425        2.9008007215
 C        -7.3408413252        3.2514846956        3.7435339511
 C        -9.4312014536        2.4737715867        2.4404052582
 C        -5.1720579972        0.4141936034        3.4156577363
 C        -4.5907615292       -1.0154511833        3.4251593949
 C        -3.0461414456       -1.2446892940        3.1025140381
 C        -2.5528238919       -0.5784931307        1.7731237098
 C        -2.3284594838       -1.3943868338        0.5483144206
 C        -2.3265563148       -0.5720649941        4.3602349315
 C        -2.8847768844       -2.7662682843        3.1020511956
 O        -5.2050247388       -1.9901343998        3.8423917288
 O        -2.2249602616        0.6145580249        1.8521735393
 C        -1.8953264281       -0.4750151628       -0.5968599581
 C        -0.7053890708        0.3105848505       -0.1682829034
 C        -0.4941175847        1.8362023843       -0.4857543233
 C         0.6300355071        2.3734280376        0.3462881756
 C         0.3851872642        2.6478353100        1.8342982772
 O         0.2697327735       -0.3079278114        0.3551840717
 O         1.7375819479        2.7153563860       -0.0651784580
 C         0.0311487027        1.8402340986       -2.0113648448
 C        -1.7986775132        2.5866928855       -0.2959811414
 C         1.7664141352        2.7035286086        2.6140896132
 C         2.5114904960        1.4259628930        2.8591772259
 C         2.0270122056        0.4839641352        4.0698679945
 C         1.4639062324       -0.8270424076        3.3226643105
 C         2.3090443192       -1.9160139131        2.8096745995
 C         3.3210635722        0.0500036336        4.6931416106
 C         0.9797469407        1.1831748929        4.9981182575
 O         3.4093784832        1.0515919518        2.1081991610
 O         0.2798330186       -0.9284892301        3.0553125198
 C         1.3747073654       -3.0771474456        2.1657668429
 C         2.3444076683       -4.1264313687        1.3920001047
 C         1.9372596462       -4.5286688915       -0.1560519141
 C         2.5431527614       -3.3508677160       -0.9766870000
 C         3.5500534134       -3.4689316991       -2.0889881059
 O         3.3502833769       -4.5419836788        1.8049205334
 O         2.1004824113       -2.2088686846       -0.8843328726
 C         2.6663884117       -5.7854887371       -0.4426864033
 C         0.4313053114       -4.6170333222       -0.2310794435
 C         4.9470785631       -2.8345032087       -1.7062540373
 C         4.9812744939       -1.7007455029       -0.6398522675
 C         6.0720197866       -0.5580895579       -0.8391161729
 C         5.2981987705        0.5744626894       -1.8121589417
 C         6.1258763091        1.4497255555       -2.7500103031
 C         6.5319354752       -0.0049718040        0.5306783260
 C         7.3266667869       -1.1709680348       -1.4631456277
 O         4.1924283624       -1.6809046084        0.2873186212
 O         4.0845420886        0.6474173821       -1.7796858938
 C         5.2600538527        1.5969843980       -3.9572104448
 C         5.4530212546        0.3063104883       -4.7985056858
 C         4.9534772392        0.3165304062       -6.2977972484
 C         3.4769938641        0.6275066677       -6.3462519470
 C         2.8445272845        1.1184220838       -7.5970626673
 O         6.1149911560       -0.5959613386       -4.4543709663
 O         2.7528413477        0.4540771863       -5.3352678333
 C         5.8379787295        1.2637070812       -7.1559391444
 C         5.2878019148       -1.1382581734       -6.8661235109
 H        -5.4847967413        0.1439274483       -5.5989317336
 H        -3.8047205487       -0.5328071287       -5.5914068786
 H        -5.2664325312       -1.7639266182       -5.2827861515
 H        -6.1952824616        2.3651014289       -0.9631407970
 H        -7.5746341749        1.8739539082       -1.8411933557
 H        -7.3934959755       -0.9227432807       -4.4561328745
 H        -7.7456995106        0.6778016372       -3.5814276774
 H        -8.1872848198       -0.8336128334       -2.8868514337
 H        -5.0046409625       -2.1197911282       -1.7597519031
 H        -6.5421742845       -2.2424621739       -1.4487888790
 H        -5.9236302460       -2.8033557900       -3.0481248608
 H        -8.6067252289        2.1403212435        0.0637066460
 H        -8.0573746028        0.5792919794        0.4487801215
 H        -6.5353231086        0.8027185469        5.0532079741
 H        -6.7053340050       -0.8483991591        4.3927995377
 H        -6.3764247859        3.7533692865        3.7296976871
 H        -7.4895839703        2.8502798862        4.7320514833
 H        -8.0220700133        4.0136557407        3.5020433275
 H       -10.0259075450        1.6674675191        2.0998515970
 H        -9.9562873517        2.7208643703        3.3575225805
 H        -9.6549219934        3.3492698997        1.8538677236
 H        -4.5193355958        1.1431031172        4.0419608255
 H        -5.1436717124        0.8374481138        2.4134242117
 H        -1.5103214648       -2.0802583665        0.8601488728
 H        -3.2474458669       -1.9669611652        0.2660559934
 H        -2.9930847817       -0.4193991026        5.2187674706
 H        -1.9277408415        0.3549970747        3.9902379602
 H        -1.4195479467       -1.2252827279        4.4958619900
 H        -1.8181325664       -3.0986895742        2.7944762828
 H        -3.3738016971       -3.1670496931        4.0765312742
 H        -3.5655312626       -3.2091541008        2.3641782312
 H        -1.6953632564       -1.0852686181       -1.4803091849
 H        -2.7290149274        0.1704964395       -0.9475566093
 H        -0.1897972351        3.6124665138        2.0204841445
 H        -0.2309221629        1.8159335989        2.1800660218
 H         0.4007893342        2.7980773119       -2.4325083120
 H        -0.7041977394        1.5566238739       -2.7666780778
 H         0.9202997451        1.1655180836       -2.0773771011
 H        -1.6721602144        3.6271476010       -0.2965379133
 H        -2.3556712257        2.3465644451       -1.1527337769
 H        -2.2490226049        2.2148504029        0.6040174849
 H         1.5471943227        3.1629452883        3.6079305200
 H         2.5007960065        3.3628266613        2.0259921708
 H         3.0767729042       -1.5619635648        2.0949230681
 H         2.9818126703       -2.3470691128        3.6669498939
 H         3.9201085691       -0.4210552606        3.8538622135
 H         3.2148646536       -0.7913730092        5.3908050683
 H         3.8879514492        0.9124756466        5.0804616266
 H         0.0495498897        1.4045964305        4.3760500805
 H         0.8217986731        0.6637794899        5.9697968154
 H         1.3712378137        2.1226266675        5.4876311732
 H         0.7848392785       -3.5868393722        3.0487973285
 H         0.7459791625       -2.6070437945        1.5337237621
 H         3.7006660846       -4.4771958510       -2.4170820596
 H         3.0933366226       -2.9261680145       -2.9616558892
 H         3.7890501000       -5.6574145746       -0.1867917659
 H         2.5766053962       -6.1196510929       -1.5079468192
 H         2.3752862175       -6.6635299999        0.1453964665
 H        -0.1313328115       -3.6840203449       -0.3028727434
 H         0.0837667946       -5.2422749173       -1.1047424876
 H        -0.0484651089       -5.0500278795        0.6340127392
 H         5.4825330554       -2.5349948721       -2.6131336961
 H         5.5995953263       -3.5900823248       -1.3243081346
 H         6.3045698877        2.3073486733       -2.1704655906
 H         7.0466126126        1.0564026754       -3.1037561345
 H         7.1386014461        0.8257237796        0.4744974700
 H         7.1541433661       -0.6513083269        1.1008623541
 H         5.5926300117        0.1939055261        1.1363872788
 H         7.4676338861       -2.2582689781       -1.0989394401
 H         7.3188418054       -1.1809524492       -2.5038187390
 H         8.1838524760       -0.6446806424       -1.0872420860
 H         4.2467996032        1.6686727646       -3.6683940853
 H         5.4276571245        2.3858824962       -4.6397394664
 H         3.5958448371        1.0158326678       -8.3458054198
 H         1.8446457961        0.6307824875       -7.9021598535
 H         2.7290055100        2.1678688753       -7.4445033614
 H         5.7223692350        1.3495425415       -8.2185482268
 H         6.7941029595        1.0482183144       -7.0839565300
 H         5.6722381049        2.2903251122       -6.8300587496
 H         5.1751833679       -1.1396992396       -7.9650340391
 H         6.3021374957       -1.4373090545       -6.5641368948
 H         4.5837226064       -1.8182119955       -6.2682527581
 Na        2.6626425878        0.1893694737       -0.0134416034
