155

 C        -4.7191920535       -0.3221118532       -4.8377113208
 C        -4.8324717340       -0.0369608127       -3.3526692867
 C        -5.9845066463       -0.6461329452       -2.4910899112
 C        -5.9817053332        0.2527996167       -1.1335600376
 C        -6.4509648329        1.6415361124       -1.1349605971
 C        -7.3152934088       -0.3454705341       -3.3037207943
 C        -5.9090562724       -2.2112868564       -2.3019141027
 O        -4.0598293733        0.7502946193       -2.7628997916
 O        -5.6921741607       -0.3757036456       -0.1225175893
 C        -7.6060088248        1.7018916901       -0.1073797249
 C        -6.9658696062        2.1052017816        1.2100829816
 C        -7.8577050099        1.9897949513        2.4013380789
 C        -7.8878503795        0.5684918769        3.1942785793
 C        -6.6589789854        0.1532281044        3.9297230955
 O        -5.8426984013        2.4638508606        1.3899762410
 O        -8.8555487371       -0.1633478324        3.0868445586
 C        -7.5603626145        2.9967181777        3.6752536439
 C        -9.4020913955        2.2141968911        2.1540702931
 C        -5.4349152389       -0.1113209502        2.9809386162
 C        -4.7564776724       -1.4452849034        3.0352115267
 C        -3.2003648385       -1.5991893842        3.1863200326
 C        -2.6579737655       -0.7365700743        1.9875588796
 C        -2.6619346162       -1.3206848313        0.6167223799
 C        -2.5966293251       -1.1947139679        4.5965109055
 C        -2.8262464986       -3.1328085276        3.0264937004
 O        -5.4097410272       -2.4098207474        2.7207470919
 O        -2.3250950331        0.3879477294        2.1933362164
 C        -2.5300516482       -0.1712196477       -0.3363916640
 C        -1.0901861827        0.2809333977       -0.3329461530
 C        -0.8436006232        1.8490069388       -0.5091067144
 C         0.3958589841        2.2611972173        0.3050296828
 C         0.1254546013        2.5557193170        1.7711727335
 O        -0.1463285910       -0.4391154676       -0.2388303782
 O         1.5405952632        2.2771512220       -0.1584558281
 C        -0.4857910814        2.1167319020       -2.0616514725
 C        -2.0704847369        2.8392310572       -0.2951309005
 C         1.4720353740        2.6291995308        2.5674862782
 C         2.2437583515        1.2399208922        2.7560498599
 C         2.0267986318        0.3542710206        3.9671816910
 C         1.4340241788       -0.9640352860        3.4175506673
 C         2.3639431048       -2.1540953465        3.0869755602
 C         3.3825885752        0.0202921342        4.6032123150
 C         1.1961758746        0.9135511307        5.1102719191
 O         3.0733218361        0.8835966793        1.9041908028
 O         0.2184065253       -0.9223902088        3.2241212305
 C         1.8077079437       -3.0057371587        1.9557929496
 C         2.7686978863       -4.1289064646        1.5038702045
 C         2.5587181881       -4.4388087891       -0.0316092970
 C         2.7662289316       -3.3218128627       -1.0677026168
 C         4.0053679880       -3.3521668968       -1.9666668010
 O         3.5311188325       -4.8064382533        2.1411483926
 O         1.9736483760       -2.4207766526       -1.1969493909
 C         3.4667583972       -5.6794199569       -0.4197965270
 C         1.0966523895       -4.9309003644       -0.1782792571
 C         5.2952145008       -2.9465794396       -1.2396683370
 C         5.0817018404       -1.5312350556       -0.4321082890
 C         5.9978667673       -0.4228036558       -0.6595159756
 C         5.2583984298        0.6988782896       -1.6381843189
 C         6.1725461207        1.5645138363       -2.4901800800
 C         6.3083300123        0.1076315014        0.7181610924
 C         7.2771039970       -0.9403509113       -1.4262914830
 O         4.1970998300       -1.4806913572        0.4289939261
 O         4.0454093550        0.8713338671       -1.5425970162
 C         5.3790248474        1.8708466318       -3.7738173612
 C         5.5808855778        0.6574576720       -4.7522100965
 C         5.4054062185        0.9642691453       -6.3535926972
 C         3.8235560263        1.0958003991       -6.5747373418
 C         3.2041489858        1.5671651348       -7.8263029423
 O         5.8533840700       -0.3903392823       -4.2081017207
 O         3.1488157819        0.6678147302       -5.6324581468
 C         6.1142619639        2.2253192547       -6.7717960220
 C         6.0529357853       -0.1860214152       -7.2314872376
 H        -5.3866895774        0.2287737684       -5.3923479401
 H        -3.7057186378       -0.2486355415       -5.1381269698
 H        -5.0511142599       -1.4099708650       -4.9062041297
 H        -5.6753826218        2.4189772878       -0.7972048967
 H        -6.7616793890        2.0566143849       -2.0902872243
 H        -7.2634358117       -0.8327652964       -4.2598896217
 H        -7.4980897389        0.6816489660       -3.4860224935
 H        -8.2160668096       -0.6923871892       -2.7176016531
 H        -5.2056231020       -2.5208274179       -1.6565743749
 H        -6.8949622434       -2.5530329442       -2.0851552387
 H        -5.7529939135       -2.6892233030       -3.2881870081
 H        -8.2487290049        2.5051332128       -0.3921257801
 H        -8.1273471205        0.7096775627       -0.1372238929
 H        -6.4143157704        0.9478388780        4.6765484455
 H        -6.9552959969       -0.7434275992        4.4522921048
 H        -6.5431950992        3.2393869911        3.6270446254
 H        -7.8030839003        2.3604948359        4.5282225948
 H        -8.1432616754        3.8990923485        3.7375578888
 H        -9.9654135578        1.4706843537        1.6373349497
 H        -9.9702235244        2.5620854261        2.9514790774
 H        -9.4628698172        3.0687873441        1.4756767392
 H        -4.6584903297        0.6092014769        3.1680063494
 H        -5.7008691380        0.1128369900        1.8842276638
 H        -1.7317449320       -1.9174458682        0.4783815795
 H        -3.5526315770       -1.8961173381        0.4320224922
 H        -3.1512442995       -1.6716773199        5.3359492131
 H        -2.7686491299       -0.1328997727        4.6330619909
 H        -1.5348522510       -1.5166533195        4.7504847853
 H        -1.7769523863       -3.2989768971        2.9934048487
 H        -3.0710457558       -3.6982354740        3.9809802637
 H        -3.3057690886       -3.5363379018        2.1245923423
 H        -2.7508756928       -0.7034925100       -1.2902185341
 H        -3.2190484629        0.6589954901       -0.3211078964
 H        -0.5436406574        3.4643323303        1.8906424681
 H        -0.5021084107        1.6611952633        2.1461528619
 H        -0.5823947403        3.1225903612       -2.2165897914
 H        -1.2570335014        1.6956495480       -2.8105137712
 H         0.4533308620        1.8148272475       -2.4983487150
 H        -1.7118846996        3.6658730270        0.2332644647
 H        -2.6182736701        3.0291859852       -1.2097195238
 H        -2.6327731550        2.2901310744        0.3819008092
 H         1.2247237460        3.0716140924        3.5415374774
 H         2.1181141700        3.2355697619        2.0186726114
 H         3.2752976616       -1.8007779039        2.5998274189
 H         2.6687031458       -2.7647132173        3.9133075213
 H         4.0683183396       -0.1041301397        3.8042659070
 H         3.4872385073       -0.7783721259        5.3727991711
 H         3.7778789492        0.9944822895        5.0936798342
 H         0.1443201748        0.8014041469        4.9757066825
 H         1.2198867879        0.1300749503        5.9366784170
 H         1.5913514370        1.8542454077        5.3777720459
 H         0.8727664692       -3.5435748754        2.1332435553
 H         1.6872396230       -2.3204974117        1.1087571258
 H         4.2281154940       -4.3471749773       -2.3983901799
 H         3.7513297993       -2.6787022541       -2.7010215789
 H         4.4583925914       -5.3135133047       -0.3642688433
 H         3.4965818096       -6.0996857961       -1.4269457096
 H         3.3213542398       -6.4319274171        0.4373097203
 H         0.4155713697       -4.0768581174       -0.3033340456
 H         0.8847347503       -5.5273984207       -0.9734494760
 H         0.7011292096       -5.4900191461        0.7163890101
 H         6.1114672494       -2.8982357917       -1.9660816571
 H         5.4534271800       -3.7631483824       -0.5171388302
 H         6.1546352584        2.5929666238       -1.9919666034
 H         7.1718079403        1.2641710219       -2.7973520753
 H         6.5067400345        1.1438081256        0.6564363064
 H         7.1437486357       -0.3800822103        1.0837610119
 H         5.4776189137        0.0305523579        1.3999316131
 H         7.4423790757       -1.9808750533       -1.1336239371
 H         7.0187478437       -0.8978123816       -2.4871469500
 H         8.1349888664       -0.4192439195       -1.2964429884
 H         4.3004547788        1.9689213846       -3.5615838549
 H         5.6310348220        2.8594848520       -4.2130792557
 H         3.5178853772        0.9212241297       -8.6479128374
 H         2.1178523589        1.6884924751       -7.6665461327
 H         3.5759539211        2.5327418795       -7.9274452561
 H         6.0089597312        2.2444184635       -7.8256372760
 H         7.1765834345        2.1939995629       -6.5821194985
 H         5.8279903828        3.2089417955       -6.3534217845
 H         5.8430037236       -0.0183355602       -8.3293147443
 H         7.1614747326       -0.1306973341       -7.0363008339
 H         5.5315641188       -1.0942120305       -6.9511330368
 Na        2.2914869166       -0.1813843819       -0.0654884549
