155

 C        -4.5992225884       -0.3294542972       -4.8026818494
 C        -4.9048915865        0.0992818180       -3.3249084359
 C        -6.1336847640       -0.6261817974       -2.5579044295
 C        -6.1600167140        0.0416180177       -1.2084925527
 C        -6.4966710835        1.5610660641       -1.0710435290
 C        -7.4803242829       -0.5081389213       -3.3784916304
 C        -5.6317617537       -2.1367721460       -2.4004004612
 O        -4.1047623241        0.8096039412       -2.7604549807
 O        -5.7598899572       -0.6277319975       -0.2649270247
 C        -7.5613317083        2.0918879639       -0.0806112410
 C        -7.0147208320        2.1611192127        1.3589595648
 C        -8.0072689972        2.0797841787        2.4689064837
 C        -7.9845486613        0.4908401067        3.0061685988
 C        -6.6750366479       -0.0559375912        3.6657082765
 O        -5.8320332990        2.3675928176        1.6621142499
 O        -8.8645220046       -0.3128739584        2.9800801915
 C        -7.6027365477        2.9034879198        3.7606786181
 C        -9.4038914064        2.5184797831        2.0608357861
 C        -5.4270755449       -0.1808477416        2.8266992583
 C        -4.8381554549       -1.6337300933        2.9079240064
 C        -3.2268490858       -1.7656994794        3.1839347198
 C        -2.5817609506       -0.8849858509        2.2036704643
 C        -2.6470541005       -1.3932998741        0.7086186074
 C        -3.0700707253       -1.2409494168        4.6712598915
 C        -2.8863639979       -3.2820412697        3.0713613229
 O        -5.5744366314       -2.5404442779        2.7227820414
 O        -2.2766771809        0.3252394019        2.3775152716
 C        -2.5566694124       -0.2718403941       -0.3962844406
 C        -1.1207282122        0.3857434304       -0.4960510074
 C        -0.9220310151        1.8528180965       -0.5615926228
 C         0.3683620924        2.1294265541        0.2961940157
 C         0.1781021620        2.4727000137        1.8605286191
 O        -0.1619791046       -0.4133967711       -0.6603814042
 O         1.4638642578        1.9898649730       -0.1521919195
 C        -0.5097189920        2.1943955956       -2.0134670821
 C        -2.1048400020        2.7512385572       -0.0265858516
 C         1.5444612302        2.6333318533        2.6229540840
 C         2.2476795643        1.2707416586        2.7275838795
 C         2.0459550464        0.3162518099        3.9358377094
 C         1.4102696702       -1.0856743495        3.5270280785
 C         2.2956664286       -2.2116506179        3.0071209322
 C         3.4988380990        0.1655232992        4.4906743433
 C         1.1146534488        0.9928289400        5.1343747464
 O         3.0229463496        0.9514907252        1.8510940012
 O         0.2165885328       -1.2109853510        3.6016025241
 C         1.6270635245       -3.1510893522        1.9558804082
 C         2.7469174960       -4.0727458772        1.3473920213
 C         2.6784547304       -4.5976687271       -0.1387029857
 C         2.8410355358       -3.3631983260       -1.0738766780
 C         4.0398614129       -3.1573961790       -1.9803348142
 O         3.7234931238       -4.4314932549        2.0411861071
 O         1.8933783225       -2.5656356061       -1.0616786659
 C         3.6573665012       -5.7822611689       -0.3455465781
 C         1.3145746701       -5.1969212791       -0.3333310927
 C         5.3345862817       -2.9537707437       -1.1014351419
 C         5.1806608954       -1.6896852687       -0.3367471043
 C         6.0818434037       -0.3677561932       -0.5918016217
 C         5.2518322973        0.5008081715       -1.5849383397
 C         5.9946611233        1.6889407113       -2.3425961302
 C         6.3542299300        0.5585858085        0.7439936066
 C         7.4546702807       -0.7277327566       -1.1319226057
 O         4.2039765653       -1.6045681143        0.4063932317
 O         4.0319191732        0.5598023614       -1.5530607315
 C         5.4561952187        2.0029287375       -3.7565983891
 C         5.6473665718        0.9546970520       -4.7935739679
 C         5.4805796139        1.2451154221       -6.2703173609
 C         3.9616125959        1.2275640154       -6.5151539304
 C         3.5671515032        1.6373829593       -7.9778143270
 O         5.8526365189       -0.2183098151       -4.4260402619
 O         3.1875362852        0.8481595280       -5.6980864252
 C         6.2032148986        2.5956158415       -6.6949077391
 C         6.0564923648       -0.0005840102       -6.9969459721
 H        -5.3559204023        0.2301834540       -5.4385167873
 H        -3.6366634861        0.0527280945       -4.9368771791
 H        -4.6485614125       -1.3702177353       -5.0599813379
 H        -5.6011578231        2.0471996210       -0.8001138890
 H        -6.7816105191        2.0519879662       -2.0009452888
 H        -7.5165283684       -1.1869492309       -4.2229111961
 H        -7.6608233654        0.5337013532       -3.6762800700
 H        -8.2801039026       -0.9180872742       -2.7778160776
 H        -4.6374809723       -1.9872874100       -1.7659207749
 H        -6.4207089929       -2.7464214913       -1.8544983251
 H        -5.4394188367       -2.6982078154       -3.3058539956
 H        -7.9201681876        3.0921192846       -0.4561833035
 H        -8.3107618866        1.3545710978       -0.1412881052
 H        -6.4506148307        0.6341375017        4.4716525335
 H        -6.9479778782       -1.0265903840        4.1447025542
 H        -6.4953119116        2.8235925221        3.8671326865
 H        -8.1789711515        2.7195423690        4.6491793139
 H        -7.8710763032        3.9508360498        3.4732477190
 H        -9.8104434568        1.9801106558        1.1693800915
 H       -10.1900318350        2.1627286292        2.8193067532
 H        -9.5585568673        3.5726244147        1.7588896766
 H        -4.7186999502        0.6262946983        3.1180451434
 H        -5.4902061636       -0.1063567666        1.7663062362
 H        -1.8235086532       -2.0805431847        0.6981536127
 H        -3.5958290646       -1.9636026294        0.5206544559
 H        -3.5194814970       -1.9678047186        5.4211124004
 H        -3.5685542378       -0.2712928950        4.7853741339
 H        -2.0442633876       -1.2216561813        4.8876819169
 H        -1.8235819609       -3.4465722524        3.0614474770
 H        -3.2551227612       -3.9044956936        3.8024419394
 H        -3.2527352868       -3.6545058317        2.0717226770
 H        -2.7247918594       -0.7334498265       -1.3725243878
 H        -3.3867017111        0.4374422273       -0.3002451243
 H        -0.3599116118        3.3808082014        1.9255405512
 H        -0.4484635721        1.7408838071        2.2693591966
 H         0.1148910422        3.1175186792       -2.2325848583
 H        -1.2611856201        2.1178053734       -2.7329686547
 H         0.0973385904        1.3595214282       -2.3857174533
 H        -1.8086952796        3.7609484325       -0.3965431030
 H        -3.0283665166        2.3725550222       -0.4553095930
 H        -2.1291976158        2.7209108847        1.1000388495
 H         1.3501679371        3.1006158024        3.5736550212
 H         2.1251876561        3.3792815542        1.9995636919
 H         3.2044664740       -1.9046603970        2.4890594664
 H         2.5935198362       -2.8499666968        3.8390873467
 H         4.2169209499       -0.0769948627        3.6758694339
 H         3.4042620764       -0.6006188061        5.2314261784
 H         3.9260327758        0.9359377671        4.9923754041
 H         0.0885705199        0.9205980052        4.8173217673
 H         1.0682603378        0.4825488716        5.9998332630
 H         1.4185959269        2.0267012664        5.2178954692
 H         0.7867329844       -3.6817971435        2.3373341553
 H         1.2982671832       -2.5016391480        1.0745775431
 H         4.2560239139       -4.0520825159       -2.5653073026
 H         3.8501205014       -2.2534732662       -2.6751668843
 H         4.6693614949       -5.8196487605        0.1199320858
 H         3.8766312265       -5.7429113705       -1.4082527219
 H         3.1474534524       -6.6610526471       -0.1631435743
 H         0.5890650691       -4.4631001650       -0.6091128335
 H         1.2488212395       -5.9556399334       -1.1634362652
 H         0.9704042113       -5.7459369443        0.4859779426
 H         6.2190086720       -2.9078948497       -1.7372989439
 H         5.4278573903       -3.7570970141       -0.3520935118
 H         5.8630766823        2.4968530411       -1.6385257884
 H         7.0548898478        1.5222589477       -2.5792726482
 H         7.1020406031        1.3924391458        0.5497878799
 H         6.5338593826       -0.2099979229        1.5787827013
 H         5.4583317324        1.0598964426        1.0678219018
 H         7.9805588050       -1.1802355886       -0.3342525199
 H         7.4877180619       -1.3731980633       -2.0289385270
 H         7.9724253475        0.2453836739       -1.4892129757
 H         4.3328988216        2.0872805186       -3.7185413578
 H         5.7175125875        2.9523364645       -4.2447913074
 H         4.1528208943        0.9488998361       -8.5898875323
 H         2.5641009613        1.3246948284       -8.0246814868
 H         3.5862257319        2.7511581715       -8.2907237229
 H         6.5892865057        2.7426506057       -7.7304806772
 H         7.0235831644        2.9120546373       -5.9113193787
 H         5.4617145302        3.3787391372       -6.4906316178
 H         5.9736070439        0.0956469809       -8.0499083982
 H         7.0642921796       -0.0852276337       -6.6817453797
 H         5.4163706351       -0.8264230854       -6.6944846173
 Na        2.1872784619       -0.0287701880       -0.3117479198
