155

 C        -5.0409510401        1.9180323706       -4.8601793482
 C        -4.8978363444        0.7442421465       -3.8721965261
 C        -6.1767981122       -0.1185925511       -3.5131630590
 C        -6.6139730776        0.1949685225       -2.0201178730
 C        -6.5721634524        1.6284075692       -1.6145897272
 C        -7.4218794195        0.1706716225       -4.4359835210
 C        -5.7614222837       -1.6103757603       -3.6991338218
 O        -3.8794807874        0.5564807102       -3.2535916715
 O        -7.0262690242       -0.7361097502       -1.3271160185
 C        -7.4900116177        1.8455958106       -0.4209881592
 C        -6.7822166009        1.5045051997        0.9220411114
 C        -7.5683822046        1.4896342670        2.2214674888
 C        -7.8742455249       -0.0480895595        2.4581039142
 C        -6.8366317078       -0.8818177186        3.1745725130
 O        -5.5581953969        1.3550998151        0.9607153932
 O        -8.7750255224       -0.5463931550        1.8617175045
 C        -6.7213594687        2.1159535766        3.3078607714
 C        -9.0083824593        2.1670596131        2.0489243020
 C        -5.8878233366       -1.7707389750        2.3552603682
 C        -5.0400937226       -2.7948952054        3.0772837196
 C        -3.5799029820       -2.3938537819        3.6306256223
 C        -2.9992826559       -1.3064543050        2.5961267382
 C        -2.4723916724       -1.8794014261        1.2861658143
 C        -3.9292752122       -1.6977313249        4.9992117622
 C        -2.6863243385       -3.6300462194        3.8814561265
 O        -5.4615866692       -3.9029193821        3.2008976050
 O        -2.9787852932       -0.1446516726        2.8627324166
 C        -2.6970581930       -0.7969040317        0.2346710605
 C        -1.3258093962       -0.2206465697       -0.3307346501
 C        -1.2003530297        1.3810523973       -0.6521287849
 C        -0.0576114772        1.7359176351        0.4155150822
 C        -0.4580520017        1.7679788184        1.9595215865
 O        -0.4156038663       -0.9741341702       -0.6362476206
 O         1.1386739476        1.8112760060        0.1373008308
 C        -0.5248119150        1.4899356469       -2.0146357713
 C        -2.4375328760        2.3470460673       -0.5729326035
 C         0.6215140523        1.3005652443        2.9353960699
 C         0.9094189516       -0.1843120756        3.0247213618
 C         1.2551559837       -0.7412940844        4.4073682375
 C         1.9288907829       -2.2332517200        4.2446341884
 C         3.1331061112       -2.4624034969        3.3740830345
 C         2.3337528340        0.0376548077        5.1186292297
 C         0.0734243998       -0.7921275022        5.3112916954
 O         0.7594479451       -0.8876714849        2.0356720502
 O         1.3850271986       -3.2151482788        4.7541560998
 C         2.7479237385       -3.3994779579        2.2598456872
 C         3.9279371909       -3.7726037254        1.4355160353
 C         3.7178164343       -4.4083675965       -0.0749371559
 C         3.2366683424       -3.1661601516       -0.8569595230
 C         4.1507591206       -2.4541897786       -1.8646895293
 O         5.0734660261       -3.5111752666        1.7855059762
 O         2.1401589644       -2.7177185400       -0.6503777481
 C         4.9587929776       -4.9774274889       -0.6776809632
 C         2.5342005098       -5.4974557111       -0.0453889440
 C         5.3052337544       -1.6376224385       -1.3810868437
 C         4.9079707046       -0.6275678643       -0.3219619521
 C         5.3551350540        0.8904843881       -0.4968562626
 C         4.5142779191        1.4858488439       -1.6508099453
 C         4.9377984214        2.7738159314       -2.1677515852
 C         5.1482738152        1.5667690141        0.9059445291
 C         6.8987132311        0.8360862079       -0.8857174520
 O         4.1719758336       -0.8821110110        0.6259920350
 O         3.5487046382        0.7944474924       -2.0382862845
 C         4.8515993526        2.9151261499       -3.7013500379
 C         5.8597771859        2.0145506359       -4.4500206230
 C         6.4186900573        2.6232623022       -5.7390802065
 C         5.2859953843        2.6736204678       -6.6748570431
 C         5.4432062434        2.3566179351       -8.2512202631
 O         6.1996724338        0.9791999017       -3.9517591913
 O         4.1876147891        2.9547731818       -6.3107717028
 C         6.9800567737        4.0982134752       -5.5102297407
 C         7.5970496255        1.7322261695       -6.2696110652
 H        -5.9359912153        2.5334866603       -4.5545469721
 H        -4.1150123065        2.5965524683       -4.8782020032
 H        -5.2963709671        1.4420827293       -5.8739524427
 H        -5.5313869125        1.7951778472       -1.5043656855
 H        -6.9254052407        2.2450186519       -2.4481674141
 H        -7.2520065372       -0.1078702230       -5.4550207071
 H        -7.5760043581        1.2441730685       -4.3714137111
 H        -8.2769980830       -0.3243600897       -4.1402979717
 H        -4.7565545357       -1.8596024477       -3.1188853115
 H        -6.5027640458       -2.3372106902       -3.2399388384
 H        -5.5843506238       -1.7784112189       -4.7703953568
 H        -7.6100394193        2.9425528135       -0.3040323865
 H        -8.3920674644        1.3015517019       -0.5769265439
 H        -6.2661161675       -0.1325696599        3.7079432720
 H        -7.3897444130       -1.4806509827        3.8836204585
 H        -6.6568659765        3.1810144046        3.2867429221
 H        -5.6401607782        1.9150747405        3.3565939446
 H        -7.1937173067        1.9825501475        4.2436068356
 H        -9.5881363747        1.3924143962        1.5224606184
 H        -9.4168842742        2.5426169076        2.9964459324
 H        -8.9208512243        3.0059872638        1.3639075264
 H        -5.2125431992       -1.0921996896        1.8307613497
 H        -6.4320365395       -2.4366352707        1.6486848317
 H        -1.4429008119       -2.0741824770        1.3944062793
 H        -3.0269952949       -2.8059808510        0.9988865578
 H        -4.3641819867       -2.3488276756        5.7088656089
 H        -4.5785675655       -0.8746380038        4.9297339013
 H        -3.0506042886       -1.1990832769        5.4225288309
 H        -1.6723692864       -3.4526725448        4.1741630337
 H        -3.2682892636       -4.3108321597        4.5536587782
 H        -2.6554374663       -4.2385204322        2.8774365762
 H        -3.2334459607       -1.1541665586       -0.6602323339
 H        -3.2577595390       -0.0236147356        0.6920456230
 H        -0.6392597318        2.8051172440        2.2084460147
 H        -1.3586071099        1.2265977021        2.0021982205
 H         0.0627497935        2.4689461647       -2.1153705113
 H        -1.1543330896        1.3796848496       -2.8733589785
 H         0.2451795431        0.7523180440       -2.2944134454
 H        -2.2659502378        3.3644499711       -0.3129197868
 H        -2.8734403550        2.4519031459       -1.5671663011
 H        -3.2012462761        1.9314744030        0.0518000353
 H         0.4215487354        1.7397593550        3.9454156410
 H         1.5566899361        1.7846017617        2.6131114702
 H         3.5949926327       -1.5443775106        2.9619207762
 H         3.8561823304       -3.0239555788        4.0537941918
 H         3.1736424996        0.1310764891        4.4588106446
 H         2.4435326241       -0.3473344644        6.0888937139
 H         2.0503261670        1.0648704772        5.4169739562
 H        -0.8170094847       -0.9742040579        4.7433761562
 H         0.1376091561       -1.6726321084        5.8951453998
 H        -0.0984944598        0.0482355543        6.0162778086
 H         2.2878325802       -4.3312503580        2.6861491348
 H         2.0692558575       -2.9182400628        1.6335143628
 H         4.6894759143       -3.1931144482       -2.5547366134
 H         3.4867354524       -1.8675434654       -2.5040252039
 H         5.6827651883       -4.1544515325       -0.5014750003
 H         4.7873344809       -5.2630933883       -1.6903621719
 H         5.3153688540       -5.8089201221       -0.0553046398
 H         1.7599173872       -5.1175351534        0.5599704108
 H         2.1502459039       -5.5299206533       -1.0954408258
 H         2.7860073639       -6.4567241156        0.2653511902
 H         5.6627035839       -1.0750290062       -2.2426235339
 H         6.1576228970       -2.2509144572       -1.0143025824
 H         4.2630383766        3.4309495289       -1.6123134137
 H         5.9649007232        2.9758544917       -1.9207988808
 H         5.4563408919        2.6173645233        0.7682832004
 H         5.8652622067        1.1444587058        1.6781244275
 H         4.1431709420        1.4355471491        1.2210123665
 H         7.5895299277        0.5212115928       -0.0790321346
 H         7.0102813615        0.1209712603       -1.6992120685
 H         7.3603689903        1.8105459160       -1.2318773510
 H         3.8456146039        2.5658043974       -3.9241108290
 H         4.9206409526        3.9613757107       -3.9371429037
 H         6.3199802299        2.7684560835       -8.7311319717
 H         5.4819234394        1.2277145350       -8.2826049505
 H         4.4982832785        2.6674299288       -8.6630500699
 H         7.6382220899        4.4026670217       -6.2875920013
 H         7.4948740050        4.1518926114       -4.4629241056
 H         6.1246210951        4.6959809000       -5.5096445027
 H         8.1645269138        2.0853440974       -7.1677643208
 H         8.3403664849        1.5642555355       -5.4591073178
 H         7.3048535092        0.6494079927       -6.4090361554
 Na        1.8455157780       -0.3952961224       -0.4816658240
