155

 C        -4.9627429985        2.0615123212       -4.8231127133
 C        -4.9505554883        0.7943126552       -3.8946344643
 C        -6.2507595993       -0.1505636020       -3.7974443943
 C        -6.6703359079        0.0315823058       -2.2973450255
 C        -6.5092164139        1.5590351835       -1.6845673765
 C        -7.4006282684        0.2505373943       -4.6296638925
 C        -5.7626883771       -1.6222314277       -4.0166828875
 O        -3.9600057703        0.6056584542       -3.1848074189
 O        -6.9496714662       -0.8381869690       -1.5353123750
 C        -7.4245211873        1.8752600984       -0.4673955744
 C        -6.6553559166        1.5660710666        0.8834393562
 C        -7.5183898418        1.5051973965        2.1747352143
 C        -7.7843372417       -0.1292076920        2.4301998964
 C        -6.7507855845       -0.9653495256        3.3091142906
 O        -5.4800002913        1.4190502103        0.8825597831
 O        -8.7558171170       -0.6890918903        2.0376304034
 C        -6.8278778355        2.0849188386        3.3975887553
 C        -8.9028830457        2.1602562340        2.0374646593
 C        -5.8807223124       -1.7604257836        2.3065617993
 C        -5.0229327734       -2.8490837710        3.0260270376
 C        -3.6319331027       -2.3685316259        3.6189775728
 C        -3.0682294622       -1.3011136486        2.7241238319
 C        -2.4950167755       -1.7766090686        1.3317933996
 C        -3.7262695642       -1.9074770653        5.0445167446
 C        -2.8531874707       -3.6758664405        3.6614985670
 O        -5.3031907508       -3.9982317019        2.8231570499
 O        -3.1137085152       -0.1188321118        3.1290622700
 C        -2.7705045353       -0.7191459946        0.2334247896
 C        -1.4063974887       -0.2875970853       -0.3507187903
 C        -1.1764350250        1.2838298371       -0.5865432681
 C        -0.0493199901        1.6584058633        0.4568767026
 C        -0.5249075544        1.8784455948        1.9115638795
 O        -0.4792486837       -1.0330727798       -0.5150771063
 O         1.1349474735        1.6628585967        0.1996833226
 C        -0.5462616454        1.5615352483       -1.9728477837
 C        -2.4573113534        2.0925468860       -0.3928878772
 C         0.4299355539        1.2452181511        2.9870653442
 C         0.7379634561       -0.2743707250        3.0321804407
 C         1.2182514913       -0.8507232173        4.3369928264
 C         1.8385201894       -2.3118808740        4.2767168599
 C         3.2118657877       -2.3763076766        3.4374460880
 C         2.2825478348        0.1043195086        4.9424931102
 C        -0.0040895504       -1.1427343777        5.3279527530
 O         0.6579143825       -0.9479874157        2.0043888292
 O         1.2765906068       -3.2778499175        4.6323675659
 C         2.9523635072       -3.3994348210        2.2514565723
 C         4.2354481508       -3.7059352065        1.3761463790
 C         3.8133912556       -4.3035081437       -0.1101273585
 C         3.2300809647       -3.0797866181       -0.9260004133
 C         4.0954138317       -2.4425184655       -1.9481137159
 O         5.3880640052       -3.6758941760        1.7727843514
 O         2.0186636260       -2.7538439203       -0.7167509290
 C         5.1624371349       -4.9673386893       -0.5943008454
 C         2.7226349099       -5.3645767556        0.1428415821
 C         5.4024362661       -1.7195423773       -1.3661476711
 C         4.9387276624       -0.5743836319       -0.3526733057
 C         5.3653643495        0.9382025667       -0.5226651239
 C         4.4497370046        1.4560576353       -1.6198650257
 C         4.6538045902        2.9492794828       -2.1229870996
 C         4.9095399514        1.8146137960        0.7467640876
 C         6.8792380178        1.1756426736       -0.6902634929
 O         4.1239447291       -0.9435394278        0.4769846190
 O         3.4229638439        0.9072468494       -1.9036379291
 C         4.7762543306        2.9908778222       -3.6952207907
 C         5.7794741691        2.0672548347       -4.3339449997
 C         6.4322672147        2.6703368178       -5.6337416681
 C         5.3738704402        2.7622664692       -6.8111316341
 C         5.7028999549        2.4722376580       -8.1992490892
 O         6.0007501958        0.9603191553       -3.8622638945
 O         4.2244749139        3.1146511252       -6.5032408428
 C         7.0071203038        4.1362089150       -5.3816962725
 C         7.6854555909        1.8120620853       -6.0444449954
 H        -5.9246935666        2.5786698578       -4.8530988502
 H        -4.3312411840        2.6840909195       -4.3572287819
 H        -4.6571748736        1.8553737642       -5.7986585667
 H        -5.4691808475        1.7029706319       -1.3056260757
 H        -6.6422724400        2.2501352903       -2.4995810148
 H        -6.9454753441        0.5391954692       -5.6142053120
 H        -7.9818957884        1.1119448477       -4.2455561150
 H        -8.1766202669       -0.6237408881       -4.7511024229
 H        -4.9263182869       -1.8800245151       -3.4706444295
 H        -6.4619735687       -2.3250438657       -3.7283007346
 H        -5.4950008401       -1.6868040744       -5.0642136996
 H        -7.6102501294        2.9348456854       -0.3885015817
 H        -8.2936879561        1.1874453457       -0.3746731481
 H        -6.1744604875       -0.3031202746        3.9658399971
 H        -7.3824752032       -1.6155622638        3.9647159924
 H        -7.1083097829        3.0855329498        3.7750995961
 H        -5.7521747875        2.2193591152        3.2565154263
 H        -6.9899680038        1.5262988737        4.3686879662
 H        -9.5170520586        1.7600289358        1.1835129756
 H        -9.3032785495        1.9911953457        3.0388387501
 H        -8.8366817969        3.3037809872        2.0543969008
 H        -5.2063666521       -1.0129747023        1.8273558724
 H        -6.4534247640       -2.2603725289        1.5365518988
 H        -1.3611357055       -1.8168182674        1.4145054363
 H        -2.9294443191       -2.7138970799        1.0775266268
 H        -4.2881398332       -2.6579302526        5.5979879085
 H        -4.1477802008       -0.9148966665        5.3285917599
 H        -2.7306896204       -1.8371204749        5.4677828335
 H        -1.7647395722       -3.3125024408        3.8030021085
 H        -3.1502001151       -4.1724779840        4.5322606896
 H        -2.8759700843       -4.3466263601        2.8401911895
 H        -3.3314320721       -1.0304395338       -0.6609822116
 H        -3.3368864565        0.1536706763        0.7044496248
 H        -0.5004844430        3.0091819314        2.0037253274
 H        -1.6317877480        1.5319955768        1.9598585205
 H         0.1135823936        2.3692083603       -2.1026891739
 H        -1.2661336333        1.5599791414       -2.7624434452
 H         0.0532882843        0.7006968548       -2.3324004563
 H        -2.3834246714        3.0564996205       -0.9633229142
 H        -3.4052306634        1.7717415168       -0.8170412163
 H        -2.6119712113        2.3006826956        0.6703492291
 H         0.1160386376        1.5612433385        3.9668597671
 H         1.4359093481        1.7056487262        2.8824150151
 H         3.3915623843       -1.3900271091        2.9762275633
 H         4.0472000488       -2.6921642883        4.0341169578
 H         2.9718805526        0.4000208001        4.1683599387
 H         2.7732819814       -0.4553751304        5.7692852374
 H         1.9149599894        1.0274808989        5.3781681786
 H        -0.7176249242       -1.8424929025        4.8606112788
 H         0.2496869769       -1.3311096527        6.4512762708
 H        -0.5889148428       -0.2405684153        5.4339095158
 H         2.6993249021       -4.3166339660        2.7046528240
 H         2.0351111966       -3.0141964473        1.6132935689
 H         4.3466892239       -3.0861521405       -2.7422578249
 H         3.4042020632       -1.6923646377       -2.3808916742
 H         5.9621027999       -4.3275644563       -0.3637285780
 H         5.0528713298       -5.2971691628       -1.6617156197
 H         5.3301101325       -5.9384205694       -0.1058802922
 H         1.6928395805       -4.9263742041        0.2637000406
 H         2.7035046679       -6.1167933214       -0.5901896585
 H         2.9473622233       -5.7372051518        1.2075413110
 H         5.9673860644       -1.2688782594       -2.1948391477
 H         6.0422369630       -2.3806063000       -0.7719593100
 H         3.7198383791        3.4569589737       -1.8681632160
 H         5.5376063349        3.4784909454       -1.7138864106
 H         5.2827193056        2.8507221390        0.7408065949
 H         5.3181405554        1.3062234467        1.6189006380
 H         3.7521780314        1.6921965630        0.7599823461
 H         7.4266911513        0.6209059581        0.1030670241
 H         7.2925337791        0.9090711415       -1.6538188521
 H         7.1429084568        2.1456643297       -0.4912539708
 H         3.7733565112        2.7040595379       -4.0242422917
 H         4.8766672467        4.0581833083       -3.9600054179
 H         6.2755264397        3.3769019863       -8.5139976478
 H         6.3299363280        1.6066275432       -8.2754322247
 H         4.7529846138        2.3992884033       -8.7199502919
 H         7.7733488468        4.3349837218       -6.1555787483
 H         7.4388119681        4.2492021705       -4.4621261042
 H         6.2187033742        4.8557011474       -5.5390740333
 H         7.8301398030        1.9523305500       -7.0935047930
 H         8.6707620605        2.0699140657       -5.6988819249
 H         7.6152850284        0.7895003659       -5.8339195644
 Na        1.8444860370       -0.5089756765       -0.1557240940
