155

 C        -3.3875720400        0.4120333042       -4.9101255069
 C        -4.2416886718        1.0228646020       -3.8492133643
 C        -5.7831036018        0.8389791150       -3.8576095413
 C        -6.2443559691        0.4258448838       -2.4700685453
 C        -7.5225364638        0.9983292223       -1.8356376410
 C        -6.3434053110        2.3366221235       -4.1671515278
 C        -6.3313297473       -0.1156528379       -4.9076012148
 O        -3.6722331195        1.7658955324       -3.0627132936
 O        -5.5381205608       -0.3169321368       -1.7874569010
 C        -8.2369580605        0.1392238115       -0.6856980916
 C        -7.3904574302        0.4360360244        0.5390785798
 C        -7.9854715781       -0.3109389495        1.7986543044
 C        -7.8806018857       -1.8860519425        1.6493964918
 C        -6.7731533223       -2.5685672965        0.8120393550
 O        -6.3897929825        1.0755362104        0.5684451321
 O        -8.6922350244       -2.5473088721        2.2147421148
 C        -7.0737146474       -0.0058475990        3.0011878490
 C        -9.3961677919        0.1921602571        2.2552385394
 C        -5.6979870994       -3.3262254860        1.6123050392
 C        -4.8089058662       -4.2580849480        0.7089131687
 C        -3.3293122833       -4.3558027205        1.1795230938
 C        -2.6977733911       -2.8449960680        0.7953792985
 C        -2.5374754117       -2.6017124473       -0.6814273708
 C        -3.1051819682       -4.5747916164        2.7071873160
 C        -2.6041013223       -5.4018085655        0.3510960251
 O        -5.2507407298       -4.8103188008       -0.2618464674
 O        -2.3761274602       -1.9625704847        1.6232435654
 C        -2.6882529546       -1.1051474147       -0.9329941568
 C        -1.4845462784       -0.2614492305       -0.4517579932
 C        -1.7538552573        1.2074019720        0.1319154985
 C        -0.8870564271        1.3469821109        1.4273854059
 C        -1.5351033167        0.9531754911        2.7688034123
 O        -0.3411720214       -0.6315594857       -0.5561200090
 O         0.2434497967        1.8039502496        1.4008941487
 C        -1.2397012941        2.2300404708       -0.9068761875
 C        -3.2204226934        1.5496981395        0.4493252655
 C        -0.4058906602        0.5715878334        3.7535818553
 C         0.6178778599       -0.5550117539        3.4235326773
 C         1.2111091986       -1.3519063159        4.6544139559
 C         1.9388928562       -2.5000909120        4.0038347959
 C         3.2134764008       -2.1359872319        3.1962981613
 C         2.2085088640       -0.4638305816        5.5873935592
 C         0.0053564276       -2.0079036043        5.4731203030
 O         1.0052590304       -0.8905143537        2.2678432287
 O         1.4949047030       -3.6183306965        4.0715070282
 C         3.5997492689       -3.4769940695        2.4578521581
 C         4.8246502289       -3.2853742586        1.6170846448
 C         4.5346480053       -3.2214712289       -0.0213462257
 C         3.9769266695       -1.7764890767       -0.2858613760
 C         4.8498425087       -0.6055948883       -0.7072418623
 O         5.9145113526       -3.1968469858        2.1121045286
 O         2.8041571116       -1.5469569333       -0.1619895446
 C         5.9839504647       -3.3136712517       -0.5959508743
 C         3.5774979701       -4.2897078489       -0.4792679511
 C         5.5653968301        0.1766845292        0.3652087221
 C         4.4654096417        1.1615834135        1.0586343861
 C         4.3172189567        2.6211270469        0.5517688143
 C         3.7205626681        2.5432952334       -0.9372363506
 C         4.0331455632        3.6633058380       -1.9011993483
 C         3.2658650580        3.3957104753        1.3255801640
 C         5.8427297011        3.0607783120        0.5213130231
 O         3.6733419284        0.6540597085        1.8458382575
 O         2.8999751274        1.7350853469       -1.2393511214
 C         4.3570507592        3.1591738598       -3.3501544532
 C         5.7859444568        2.5825390652       -3.5241937858
 C         6.6283619868        3.2415846058       -4.7573096603
 C         5.8026116862        3.1349186100       -6.0998238029
 C         6.3295521047        3.7993170236       -7.3200344821
 O         6.3566505791        1.9278007799       -2.6938886318
 O         4.7783814194        2.4653147807       -6.2101316417
 C         6.8420772503        4.7273861414       -4.4446390095
 C         7.9363674226        2.4526728294       -4.8845290350
 H        -3.9564884807        0.0868426571       -5.8281191377
 H        -2.7002095453        1.0789436442       -5.3193835041
 H        -2.6745428079       -0.4664379059       -4.6264618569
 H        -7.1479155043        1.9424214312       -1.3671320244
 H        -8.3057035766        1.2722177618       -2.5945620788
 H        -5.5632607825        2.9109661174       -4.6797181678
 H        -6.5858528660        2.8396587366       -3.2143996644
 H        -7.3056113425        2.3035088043       -4.7470867075
 H        -5.7082401199       -0.9891428666       -4.8626386261
 H        -7.3702572237       -0.5146981795       -4.5701166016
 H        -6.1809718724        0.3517462596       -5.9702341270
 H        -9.3598078524        0.4093659823       -0.6224970567
 H        -8.0500664998       -0.8271546806       -1.0265971391
 H        -7.3731160358       -3.1855631651        0.1601104398
 H        -6.4076036988       -1.9865686586       -0.0315511047
 H        -7.4180146497       -0.4464797926        3.9272497448
 H        -7.1122959670        1.1167620286        3.0190549743
 H        -6.0394635627       -0.4340805514        2.7766431678
 H       -10.2105349571       -0.0816731560        1.6684409242
 H        -9.5317508500       -0.1534331433        3.2687686417
 H        -9.3738193490        1.2623396012        2.3374759068
 H        -6.1927449347       -3.9351411742        2.4310913177
 H        -5.1184190348       -2.6365661666        2.2221265338
 H        -1.5473070659       -2.8924751186       -0.9455045081
 H        -3.1841772526       -3.2016026934       -1.3389390223
 H        -3.9553438879       -5.0635047914        3.2008942513
 H        -2.8624866529       -3.5357424757        3.0778011545
 H        -2.1826891482       -5.1007089080        2.9296859883
 H        -1.4817351037       -5.6462731038        0.6676460223
 H        -3.1437722887       -6.3812887876        0.3985153689
 H        -2.4843593371       -5.1972573107       -0.7147465129
 H        -2.8706973675       -0.9509952171       -2.0298941900
 H        -3.5969296307       -0.7447984349       -0.4482539743
 H        -2.3032643415        1.7982825574        3.0715674520
 H        -2.1269362375        0.0162578601        2.6248168683
 H        -0.1760453993        1.9579006068       -1.0795252249
 H        -1.4366897048        3.2617774596       -0.3964802268
 H        -1.9074546426        2.1558961246       -1.7352972901
 H        -3.4332470050        2.5105776705        1.0021016911
 H        -3.8048858285        1.6466850176       -0.4969722457
 H        -3.5751294894        0.7693160664        1.1281076821
 H        -0.7683792927        0.5869339377        4.7347415118
 H         0.3242507403        1.4269561509        3.7948830540
 H         2.9750653076       -1.4206436016        2.3431344518
 H         3.9658972136       -1.6534455221        3.8845151576
 H         2.6261722411        0.0910077874        4.7731358158
 H         2.8153030972       -1.1559627391        6.2276103985
 H         1.6688851490        0.2549324193        6.2930741511
 H        -0.9502590764       -2.1223032432        4.8892317531
 H         0.3720535586       -3.0026847706        5.8477588481
 H        -0.1054162631       -1.5254788167        6.4122794147
 H         3.8919796492       -4.1718948808        3.2092202219
 H         2.6249125145       -3.7017039351        1.9059796886
 H         5.5936586666       -1.0530951412       -1.4294130433
 H         4.1887230465        0.0124175451       -1.3525541155
 H         6.5728615741       -2.6050194635       -0.0767968357
 H         6.0919723663       -3.0515796937       -1.6896923411
 H         6.4265705759       -4.2938035014       -0.5423833923
 H         2.4765952484       -4.0398638381       -0.4472714752
 H         3.8281565641       -4.5730172844       -1.4767657750
 H         3.6923845862       -5.1804881592        0.2380505758
 H         6.3548256111        0.8155641612       -0.0863507414
 H         6.1171871186       -0.4236669212        1.0362030978
 H         3.1118219172        4.1710569310       -2.2092849886
 H         4.7897704530        4.3402894340       -1.4962269239
 H         2.6897899952        4.1113871006        0.8502894626
 H         3.6095442322        3.9904848626        2.1344834617
 H         2.6678076823        2.7023141752        1.8141119279
 H         6.3851137375        2.7682169483        1.4871785453
 H         6.2483098804        2.8255535893       -0.4664068665
 H         5.8332584072        4.1206238653        0.4790016080
 H         3.6008304846        2.5310895552       -3.6344348630
 H         4.1707663971        4.1050500662       -3.9030623446
 H         7.3957749136        4.2070013136       -7.2347047596
 H         6.4232425338        3.0194571046       -8.0703262011
 H         5.6662441123        4.5729645315       -7.7091574092
 H         7.5307672628        4.7736016352       -3.6737491581
 H         6.0173991870        5.1888735542       -4.0912108166
 H         7.2756439351        5.3694411404       -5.2383140240
 H         7.9675375130        2.0592176917       -3.8759837397
 H         7.8506378146        1.6843210069       -5.6114714612
 H         8.6959692236        3.1176713214       -5.1255182059
 Na        1.5357740712        0.3460563815        0.2396893869
