155

 C        -6.0789990110       -0.1664420145       -5.4861865201
 C        -5.4979064638        0.5929085558       -4.3700981738
 C        -6.4202962919        1.2680185608       -3.3185339688
 C        -7.2016579689        0.0209432038       -2.5952178114
 C        -8.0304564184        0.3937268845       -1.3613824077
 C        -5.5382081135        2.0967646043       -2.2643757220
 C        -7.4905489460        2.2219770846       -4.0273694733
 O        -4.2646302230        0.5611824445       -4.1726840899
 O        -7.2560902050       -1.1131674431       -3.0577762641
 C        -8.7222150602       -0.7837134456       -0.6421467400
 C        -7.8445738902       -1.4296656488        0.4986643679
 C        -8.0441485288       -2.9886320487        0.6937717220
 C        -7.1990577555       -3.8146610592       -0.5731389731
 C        -5.9088054876       -3.3164658331       -1.1186931966
 O        -7.0268453581       -0.8501210395        1.1991748054
 O        -7.7223376552       -4.7579204722       -1.0901086575
 C        -7.3318508725       -3.4509914253        1.9989998288
 C        -9.6026202380       -3.4089746035        0.7018102452
 C        -4.9192856957       -4.3897997950       -1.5793637549
 C        -3.6483639452       -3.8973780841       -2.3596395381
 C        -2.2092273760       -3.6264101002       -1.5529500430
 C        -2.3003654006       -2.1506139297       -1.2105430500
 C        -1.9247124170       -0.9914814615       -2.1780826522
 C        -2.1603250825       -4.4744003180       -0.3008144195
 C        -1.0789399748       -4.0075309039       -2.5589150263
 O        -3.5753146004       -3.6070045200       -3.5173228256
 O        -2.5647430857       -1.8006292280       -0.0869020820
 C        -2.0949546765        0.3891963137       -1.5769807362
 C        -1.0529196049        0.6563594516       -0.5241107219
 C        -1.3193114877        1.8255986278        0.5092368066
 C        -0.7380902881        1.4480868934        1.8509945355
 C        -1.3653578005        0.3526895918        2.7379202769
 O        -0.0030307396        0.0713825881       -0.4276185688
 O         0.2876241988        2.0417284470        2.2441516085
 C        -0.6162100521        3.0936383388       -0.0872456520
 C        -2.8393726545        2.1165716170        0.6784759638
 C        -0.5963983624        0.0149766334        3.9441176627
 C         0.6510046486       -0.8662771196        3.6428744372
 C         1.1618012387       -1.8554953545        4.8665828425
 C         2.4587784711       -2.5923201406        4.4839973108
 C         3.8027796476       -2.0673750571        3.8448840279
 C         1.5300653062       -0.7922348870        6.0699219913
 C         0.0528759897       -2.7656052775        5.3772078859
 O         1.2668513425       -0.9189313833        2.6096873424
 O         2.5264308483       -3.7208578039        4.7519086332
 C         4.0896812089       -2.8169288763        2.5275382752
 C         5.4410538139       -2.3812283776        1.8182959485
 C         5.4084432540       -2.2480073926        0.2475774237
 C         4.6382724365       -0.9558046658       -0.1333969332
 C         5.3757292343        0.3703312413       -0.4278737257
 O         6.4706068468       -2.2833542213        2.4328740748
 O         3.4285104480       -0.9385121313        0.0035083275
 C         6.7908088082       -2.3658445704       -0.2964222557
 C         4.5059827378       -3.4436952583       -0.3666793812
 C         5.8663426707        1.0525181706        0.8228843414
 C         4.6938208139        1.5073890909        1.6620436756
 C         4.3825340428        3.0908926761        1.7787298017
 C         3.5502584958        3.2696164316        0.4874961728
 C         3.5686992011        4.6857573885       -0.1375469237
 C         3.3517128815        3.1659127164        2.9780336676
 C         5.5466915571        4.0378051691        1.9504445271
 O         4.0752762831        0.6825556463        2.3092004025
 O         2.7609061585        2.5077989877        0.0083053453
 C         3.7952056605        4.5902585684       -1.6561035294
 C         5.1387127817        3.8897363828       -2.0199367746
 C         5.3484075258        3.3753931331       -3.5769881499
 C         4.2493197665        2.2571418381       -3.8529552061
 C         4.5575761699        0.9773571545       -4.5790492805
 O         5.8736208337        3.5995926703       -1.1471715296
 O         3.1906146384        2.3247256056       -3.2440282089
 C         5.1314126096        4.6319796265       -4.4352743427
 C         6.7772234943        2.8090129815       -3.7216884171
 H        -6.4627747343        0.5030455959       -6.1749847620
 H        -5.3248863446       -0.7263863192       -6.0923226310
 H        -6.8693567460       -0.7909849308       -5.2908228610
 H        -7.2086421949        0.7154029517       -0.7070792485
 H        -8.7200004034        1.1155589017       -1.7644652744
 H        -5.1482505315        2.9881053076       -2.6282474686
 H        -4.7109939537        1.5542491097       -1.9698206073
 H        -6.0786284592        2.4088306139       -1.3801366148
 H        -8.0277661015        1.5857209450       -4.7821535773
 H        -8.3966698911        2.6369926498       -3.4026777330
 H        -6.9922624703        3.0662708880       -4.6362311281
 H        -9.7456734364       -0.5192113296       -0.2346311767
 H        -8.9835243759       -1.6570321033       -1.2971754594
 H        -6.1637442075       -2.5451720034       -1.8387281810
 H        -5.4282891854       -2.6830932932       -0.3288426074
 H        -7.6049187836       -4.4788487624        2.3556557735
 H        -7.6355032038       -2.8259127552        2.8274518335
 H        -6.3027687123       -3.5287543321        1.9227067160
 H       -10.2165304927       -2.7453675451        0.1223391936
 H        -9.8535011881       -4.3667579184        0.3453440427
 H       -10.1076526985       -3.4470006601        1.6609739537
 H        -5.4132008639       -5.1215385775       -2.2789115171
 H        -4.6659001039       -4.8644563846       -0.6808601857
 H        -0.8884503672       -1.1709010163       -2.4191130157
 H        -2.4288997809       -1.1754162605       -3.1479498995
 H        -2.3953382963       -5.4706769131       -0.5661840411
 H        -2.7859730946       -4.0615641888        0.5245732061
 H        -1.1426185277       -4.4678814656        0.1305772517
 H        -0.1409806519       -4.1533641533       -1.8570432634
 H        -1.3602014456       -4.9803557331       -2.9495705192
 H        -0.9556363777       -3.2904209867       -3.3870099906
 H        -2.1206143821        1.1089808846       -2.3995743300
 H        -3.1155439055        0.4697904264       -1.1947005548
 H        -2.3855293327        0.7584314078        3.0667886885
 H        -1.4840906086       -0.5548883509        2.1723564814
 H         0.5516088102        3.1615749278       -0.1067236357
 H        -0.9863494518        4.0040993965        0.3550520257
 H        -0.8684260988        3.1656999273       -1.1620227633
 H        -3.0428776994        2.8849358357        1.4537990196
 H        -3.1420012670        2.5679845637       -0.2830214086
 H        -3.4382443235        1.2394110971        0.8944668022
 H        -1.1098966337       -0.6669355178        4.6376858018
 H        -0.4367427903        0.9020366818        4.6119875769
 H         3.7839092931       -0.9733387512        3.7399681585
 H         4.6140106990       -2.4438897998        4.6027743508
 H         0.9499161299        0.1192637667        5.9347439004
 H         2.6209025397       -0.6943227483        6.3584482043
 H         1.2369852890       -1.2228789559        7.0004005730
 H         0.2584972609       -3.2277311192        6.3677294237
 H        -0.8992251925       -2.2464075893        5.5388303182
 H        -0.1614831133       -3.4459068557        4.5506256531
 H         4.2188722555       -3.8363560816        2.7511560215
 H         3.1707399826       -2.7226544309        1.8654264983
 H         6.2058688286        0.1958028324       -1.1615660490
 H         4.7243800967        0.9934887512       -1.0254591159
 H         7.4583084633       -1.6668228059        0.2137978864
 H         6.7205484451       -2.2027902485       -1.3980970866
 H         7.2261141391       -3.3441867706       -0.1511199306
 H         3.4558020986       -3.2628533164       -0.3103756403
 H         4.7396140315       -3.6605157008       -1.4435394460
 H         4.8509233078       -4.2917444776        0.2010501795
 H         6.5801455860        1.8874511517        0.6006552928
 H         6.4332033595        0.3876660129        1.4648340645
 H         2.6727071389        5.2630019729        0.0901154426
 H         4.3602397083        5.3042672132        0.2222036897
 H         3.8024330102        2.5371220505        3.7233326605
 H         2.3850680534        2.8270195106        2.5528980120
 H         3.3179223468        4.1496207387        3.3212289100
 H         6.0921463507        3.8086950779        2.8758162484
 H         6.1225504080        4.0896566399        1.0747161566
 H         5.2510817152        5.1419942904        2.1698655734
 H         3.1211437783        3.8602565662       -2.0095410564
 H         3.6362420857        5.5600368961       -2.1685181363
 H         4.8618488379        1.1342187174       -5.6116049676
 H         5.2761955211        0.3079684616       -4.1273033525
 H         3.6855790631        0.2892789699       -4.7117549403
 H         6.1264009053        5.2387194805       -4.4365602866
 H         4.2289463915        5.1921707831       -4.3545207579
 H         5.1878284076        4.2466127087       -5.4605170805
 H         6.9938857478        1.7873453231       -3.3537922900
 H         7.1017849180        2.6963812714       -4.7834481317
 H         7.5743836980        3.4488688477       -3.2390864964
 Na        1.8380630344        0.5070574006        0.8817366639
