155

 C        -5.3829025945        0.4298617344       -5.5298134502
 C        -5.4125574382        0.8886348723       -4.1291939199
 C        -6.7419280524        1.2951658418       -3.3708368342
 C        -7.4612936152        0.0102598631       -2.7259777565
 C        -8.0760448603        0.1109121907       -1.2584898087
 C        -6.4777646913        2.3095530428       -2.2437298051
 C        -7.7567305049        1.8878849520       -4.3501607366
 O        -4.3671389303        1.1061272331       -3.4641830876
 O        -7.7008625908       -0.9397995826       -3.4664958780
 C        -8.6579203296       -1.2061757572       -0.7272269766
 C        -7.5497804184       -1.9402264200        0.1417385523
 C        -7.8464884129       -3.5005794492        0.3534737442
 C        -6.9801658878       -4.2514089386       -0.7513900935
 C        -5.7466474126       -3.5371320554       -1.1936760745
 O        -6.5300383415       -1.3202716754        0.4753980003
 O        -7.2215733985       -5.4052376668       -1.0720845825
 C        -7.2090023059       -3.9714730788        1.7895210566
 C        -9.3363202741       -3.9996288014        0.1650745110
 C        -4.5697228538       -4.3528347493       -1.7600290140
 C        -3.5407336447       -3.3323491579       -2.4009623283
 C        -2.0351851225       -3.3574174463       -1.9200030322
 C        -1.8732566169       -1.8847323698       -1.5565957667
 C        -1.4766436463       -0.8434639019       -2.5197274402
 C        -1.6530342784       -4.3244569108       -0.7746544953
 C        -1.1643735284       -3.6701156280       -3.0763256772
 O        -3.8637906341       -2.5707084473       -3.2702359479
 O        -1.9710744578       -1.5961010073       -0.3449987394
 C        -1.6379274260        0.6161521537       -2.0288163557
 C        -0.8564091392        0.9074956597       -0.7505033628
 C        -1.3197038477        1.8736885083        0.3503089734
 C        -0.5086883924        1.4038680418        1.8264435275
 C        -1.0472744053        0.2119075998        2.5662673872
 O         0.2168790782        0.2893570018       -0.6018787744
 O         0.4929781682        1.9719112238        2.1185674031
 C        -0.8338080435        3.3124576547       -0.0751708302
 C        -2.8667064713        1.8778591739        0.5442507189
 C        -0.3262272741       -0.0656036990        3.8499261496
 C         0.6755500880       -1.2326025361        3.6573207287
 C         1.2192315495       -2.1091974342        4.8425231310
 C         2.3738056553       -3.1038022856        4.2578490376
 C         3.6403629834       -2.5464721030        3.7177946336
 C         1.8904592232       -1.0040951755        5.7118451049
 C         0.1217291024       -2.7676789606        5.7095099920
 O         1.1940596562       -1.4285834632        2.5832325320
 O         2.1634941853       -4.2147541683        4.6052054262
 C         4.1681799743       -3.3135824037        2.4928332003
 C         5.4575286174       -2.3824456442        2.0065345164
 C         5.5553397077       -2.0884412311        0.4834669421
 C         4.5347605309       -0.9496925250        0.1253883195
 C         5.0456688414        0.4758266194       -0.0321976976
 O         6.1680880206       -1.8633933275        2.7740322962
 O         3.3622210478       -1.2311558219       -0.0446261984
 C         7.0269886434       -1.7053256941        0.2173327424
 C         5.2168821394       -3.3673924306       -0.3710528240
 C         5.6131566515        1.0775267819        1.3394912171
 C         4.4130674105        1.6926399003        2.1007254910
 C         4.3048641172        3.2565849224        2.1694179474
 C         3.4579081640        3.6269707049        0.8069422546
 C         3.6727820587        4.9773981269        0.1770296285
 C         3.4768982875        3.6787769039        3.4666413343
 C         5.6340019466        3.9705062818        2.3270817505
 O         3.5252286106        1.0338967879        2.5833960464
 O         2.6588702087        2.7916651642        0.3489265236
 C         3.7539103545        4.8957653385       -1.3802459955
 C         4.5942916641        3.7562615355       -1.7816393600
 C         4.7611310568        3.4622785201       -3.4185310639
 C         3.8718066104        2.1759001568       -3.6967354519
 C         4.5257646760        0.7876281761       -3.9295312928
 O         5.2773871875        3.1639450304       -0.9228202210
 O         2.6648078325        2.2146266293       -3.6672271421
 C         4.3842689958        4.6874770330       -4.3749078555
 C         6.2864646640        3.2653750599       -3.6165344677
 H        -5.6367227775        1.1615929860       -6.3248172212
 H        -4.4547314696       -0.1188569968       -5.7830339539
 H        -6.1744867550       -0.3099977060       -5.6926725077
 H        -7.2213085388        0.4585673492       -0.6763099034
 H        -8.8130821810        0.9282801603       -1.2640780715
 H        -6.3718243089        3.2959575585       -2.6436118843
 H        -5.5923589097        2.0511691597       -1.7760811998
 H        -7.1787426160        2.3200141041       -1.4921372520
 H        -8.0481603509        1.2395023448       -5.1305422213
 H        -8.5961165589        2.4217313917       -3.7781987267
 H        -7.2918680759        2.8482242593       -4.7726631556
 H        -9.6854224459       -1.2553497094       -0.2393255653
 H        -8.9222746608       -1.9442683004       -1.4256647300
 H        -6.0454163647       -2.9673886970       -2.1292377331
 H        -5.3652958512       -2.8239179492       -0.4611402009
 H        -7.2028527221       -5.0334059003        1.8319989479
 H        -7.6787410970       -3.6121389290        2.7099345293
 H        -6.1742664550       -3.5798168585        1.9755892682
 H        -9.6709800821       -4.3469247322       -0.8021019447
 H        -9.3939470441       -4.8354301596        0.7480701489
 H       -10.0333450201       -3.2972968014        0.5188322468
 H        -4.9518673693       -5.0349946788       -2.4804512835
 H        -4.0395348036       -4.9868179580       -0.9879097517
 H        -0.4120219994       -1.1304511016       -2.8582148895
 H        -2.0206057683       -1.0820364199       -3.4270470640
 H        -1.6434454074       -5.3403193970       -1.1662876144
 H        -2.4250540397       -4.2841854935        0.0614545813
 H        -0.6709213220       -4.2122023725       -0.3890541349
 H        -0.0967353419       -3.7471815973       -2.7897158660
 H        -1.4918511949       -4.6294168620       -3.5067947963
 H        -1.2826686845       -2.9583484523       -3.8007278950
 H        -1.4789037086        1.2240259904       -2.8928552317
 H        -2.6912712405        0.7973974880       -1.8672016225
 H        -2.0061840178        0.3573052866        2.8810987002
 H        -0.9946809350       -0.5746182658        1.8433734290
 H         0.2514665417        3.3144817719       -0.1026207613
 H        -1.1253260481        4.0936021921        0.5530964824
 H        -1.2432150489        3.7077813145       -1.0562038886
 H        -3.0529961106        2.4450126504        1.4702374376
 H        -3.2776241481        2.1891130824       -0.4088649940
 H        -3.2517333973        0.8921291384        0.7225201911
 H        -0.9150010789       -0.2909336879        4.7657319563
 H         0.2730095562        0.8336139993        4.1122520491
 H         3.4372022112       -1.4570943190        3.5003271614
 H         4.3730076098       -2.6214338228        4.4946933889
 H         2.7917361616       -1.4707092755        6.2559934569
 H         1.2279261090       -0.6643979702        6.5212008752
 H         2.1371086881       -0.0313320899        5.1665057634
 H        -0.7059576836       -3.1026296375        5.1024967465
 H         0.5721503366       -3.7863466931        5.9557539084
 H        -0.2129358587       -2.0602386703        6.6046603628
 H         4.4109464750       -4.3654937883        2.7266966184
 H         3.3627704483       -3.4521721062        1.7466454929
 H         5.8446578696        0.5503996388       -0.7289878013
 H         4.2245454596        1.1198496683       -0.4149884750
 H         7.3211452945       -0.8319180141        0.7068522723
 H         7.2549838929       -1.3957585150       -0.8156056296
 H         7.6439011162       -2.5220877924        0.6301858409
 H         4.1314256748       -3.5393489267       -0.3697577340
 H         5.5914099230       -3.2399581228       -1.3230638106
 H         5.6133061158       -4.2147368712        0.1975271964
 H         6.1276311165        1.9535430663        0.9180594196
 H         6.3233892271        0.4978100795        1.9985354134
 H         2.8057939811        5.5584388924        0.4052935175
 H         4.4999631644        5.5875459304        0.5956255583
 H         3.8266767795        2.9753304181        4.1209759788
 H         2.4250857104        3.5776394616        3.3497703365
 H         3.7839342814        4.6647685853        3.6657612864
 H         6.1993268846        3.7523808917        3.1684446581
 H         6.3440442880        3.8881515937        1.5058909235
 H         5.3967737233        5.0453520017        2.2944035718
 H         2.6991221743        4.7600997568       -1.7628836313
 H         4.0896443393        5.8392744252       -1.7744773049
 H         5.1391661814        0.7128653565       -4.7842271099
 H         5.1224360142        0.5153863689       -3.0149191717
 H         3.8823553389       -0.0400954477       -4.0676340719
 H         5.1249442914        5.5575296070       -4.2422811992
 H         3.5181715799        5.2236442683       -3.9871384306
 H         4.2966421191        4.4157646638       -5.5297113883
 H         6.6955876096        3.0548397650       -2.6088755319
 H         6.5019159172        2.2769464474       -4.1673630279
 H         6.8662197529        4.0334518889       -4.1124532754
 Na        1.8849539640        0.2472825338        0.9017232246
