155

 C        -5.0803092760        0.5377086715       -4.5924745921
 C        -5.6022109835        1.3239965238       -3.4705662020
 C        -7.1940061723        1.3964965575       -3.3219349060
 C        -7.7177985013        0.0655750076       -2.8638726857
 C        -8.2980864191       -0.1713568543       -1.3819961456
 C        -7.5140196913        2.6361015117       -2.4608166392
 C        -7.7139284521        1.7238696280       -4.7949105543
 O        -4.8882841261        1.8753575868       -2.6809064649
 O        -7.5394325341       -0.9265755386       -3.5589494619
 C        -8.5540685295       -1.6722945270       -1.1304282925
 C        -7.7205641088       -2.2906948708       -0.0191985116
 C        -7.5113383705       -3.7743019735       -0.0266376558
 C        -6.3061064468       -4.3432221098       -0.8340954834
 C        -5.1810601188       -3.4193212387       -1.1202491882
 O        -7.0581522021       -1.5651726556        0.6845738003
 O        -6.2499417897       -5.5033049318       -1.2309376900
 C        -7.1463801331       -4.1902657738        1.4472328940
 C        -8.8567455729       -4.6063806061       -0.3686716353
 C        -4.3530532134       -4.0667678986       -2.2238588057
 C        -3.3338628123       -3.1113645326       -2.8417574886
 C        -1.8879410148       -3.1929991749       -2.3119719241
 C        -1.4906446173       -1.7125612518       -1.7831556864
 C        -1.2751815819       -0.5830175685       -2.8217386569
 C        -1.6977726887       -4.1593245989       -1.1271753427
 C        -0.9548285725       -3.4829025636       -3.4894233666
 O        -3.5960674883       -2.4399237789       -3.8412144811
 O        -1.3041619416       -1.4784618947       -0.6178819924
 C        -1.3295571166        0.8559977076       -2.3011514686
 C        -0.6057288182        0.9557946861       -0.9423923861
 C        -1.3405026978        1.5732002018        0.3013365545
 C        -0.7135577929        1.0637949382        1.6209841348
 C        -1.0665186265       -0.2276774587        2.3046090595
 O         0.5740861200        0.7132705706       -0.8732781023
 O         0.0949713012        1.8635235072        2.1402921141
 C        -1.1484847518        3.1831995767        0.2661824334
 C        -2.8582514667        1.2422732584        0.3326161087
 C        -0.4114129974       -0.4337740574        3.6793344062
 C         0.8272843196       -1.2331168263        3.5580241431
 C         1.1568969352       -2.1834403236        4.7512147132
 C         2.3298399631       -3.1439384073        4.2302547428
 C         3.8072869324       -2.8644912593        4.1411695197
 C         1.8221523777       -1.2917714672        5.8377228038
 C         0.0146951715       -3.1113043499        5.3775791977
 O         1.6431374044       -1.0116908933        2.6669206717
 O         1.9345257835       -4.1370532711        3.6109229331
 C         4.2547084353       -3.1063054938        2.6939869554
 C         5.5860787487       -2.4817977715        2.3499937315
 C         5.7203217394       -2.2036990500        0.7195559051
 C         4.8822286346       -0.9137245170        0.5492142595
 C         5.4996024028        0.4903239630        0.6128624418
 O         6.4028977246       -2.0724174096        3.1067258484
 O         3.7022638684       -0.9957539100        0.4267348724
 C         7.2345924572       -2.0301584013        0.3356511763
 C         5.1031096326       -3.3921457400       -0.0824114997
 C         5.6278504467        1.0703529230        2.0383634247
 C         4.3637683833        1.6592123236        2.6306741770
 C         4.0144440104        3.1685614276        2.3523007743
 C         3.2982668782        3.4874070209        0.9523447530
 C         3.4697648091        4.8516182556        0.3578985119
 C         3.0237432912        3.6600965558        3.4868974279
 C         5.3065700121        4.0748250889        2.4500869247
 O         3.5911784388        0.8920151975        3.2401609903
 O         2.6514667425        2.6361264824        0.3481966446
 C         3.3002505319        4.8194295852       -1.1649878370
 C         4.3893277803        4.0118919217       -1.8260137268
 C         4.3355221630        3.7865668859       -3.4147078399
 C         3.5623443404        2.4395385424       -3.5600137993
 C         4.2412245912        1.1488071748       -3.1431262272
 O         5.2430117241        3.4300563902       -1.1378703061
 O         2.4648548037        2.3744144492       -4.0755055507
 C         3.5795844231        4.8668787774       -4.1976703572
 C         5.7403449845        3.4937874134       -3.9668575474
 H        -5.4216801395        0.9033662830       -5.6416329863
 H        -4.0108747617        0.7021973374       -4.6966140913
 H        -5.1736204122       -0.5965828702       -4.6440762938
 H        -7.6064909242        0.3503129941       -0.7152347519
 H        -9.2222567681        0.3723329842       -1.1937891075
 H        -7.5703183058        3.4996496460       -3.1312079354
 H        -6.6640302067        2.8520156956       -1.8123324572
 H        -8.4281054006        2.5465733070       -1.9928975316
 H        -7.7517335517        0.9122211147       -5.3739308981
 H        -8.6834515730        2.0895230036       -4.7450303384
 H        -6.9768474557        2.3647842349       -5.2397167318
 H        -9.5364190268       -1.9090942549       -0.9952301484
 H        -8.3174734277       -2.3560170536       -1.9942245471
 H        -5.4405653600       -2.3907159654       -1.3306788463
 H        -4.5287350746       -3.5092013097       -0.2111985062
 H        -6.8338638988       -5.2278199352        1.4117793387
 H        -7.9831802481       -4.2451956264        2.1582839140
 H        -6.2629911059       -3.6045476881        1.8674566360
 H        -8.9627036561       -4.5238330814       -1.4783761202
 H        -8.6167867743       -5.6219840973       -0.1154357404
 H        -9.6767639270       -4.2896134750        0.2373245309
 H        -5.0914965318       -4.5387923033       -2.9123192916
 H        -3.8314548431       -4.9235657179       -1.7884892713
 H        -0.3393157697       -0.8426819760       -3.2763589302
 H        -2.0710878871       -0.7620112032       -3.6203083843
 H        -1.8147545682       -5.2267062919       -1.3974169168
 H        -2.4796341790       -4.0076356095       -0.4593165419
 H        -0.7868060987       -3.9108218811       -0.5569292900
 H        -0.0210793263       -3.0802612120       -3.4321329623
 H        -0.8122043048       -4.5516584213       -3.6346252030
 H        -1.3954372102       -3.1074783253       -4.3878317198
 H        -0.8035434980        1.4960023750       -3.0683035842
 H        -2.3888607658        1.1268109595       -2.2493615049
 H        -2.1261456205       -0.1581537482        2.6468037783
 H        -1.0533307354       -1.0859922678        1.5981944823
 H        -0.1664791203        3.4702819425        0.1547499884
 H        -1.4455820513        3.6136357661        1.2716942266
 H        -1.6875924510        3.6263168192       -0.5481599325
 H        -3.2857258473        1.8390201348        1.1194063174
 H        -3.3919756950        1.6997386460       -0.4723962295
 H        -2.8766527611        0.1359058452        0.4153289716
 H        -1.0022578170       -1.0062994627        4.4177128685
 H        -0.1110595308        0.5210478825        4.0816454698
 H         4.0220006655       -1.8797072962        4.4479718760
 H         4.3023785078       -3.4582727277        4.8828644293
 H         1.3898314448       -1.5575463288        6.8530954148
 H         1.5174817090       -0.2855487205        5.6940423487
 H         2.8827079008       -1.5855155404        6.0319146139
 H         0.2564857667       -4.1738026453        5.2387580166
 H        -0.2543918062       -2.8347933010        6.4509045330
 H        -0.8017923536       -3.0491090452        4.6112219914
 H         4.3469944484       -4.2158797305        2.5011790046
 H         3.5187558880       -2.6468788732        2.0265216386
 H         6.5303452941        0.4031322172        0.2418012027
 H         4.9346478421        1.1472206381       -0.0123675134
 H         7.8337455091       -1.3013312077        0.9421997328
 H         7.4499738647       -1.8861100525       -0.6732676400
 H         7.7314305180       -2.9945537869        0.4738590513
 H         4.0441186494       -3.3485624068        0.0821882370
 H         5.3292744834       -3.2741903008       -1.1573956274
 H         5.5707156735       -4.3202804509        0.1054003698
 H         6.3964272002        1.8504050272        1.9387275778
 H         6.0778787068        0.2557273557        2.6126693818
 H         2.4998669440        5.3495435476        0.7311635438
 H         4.3910315157        5.3804247945        0.6063997439
 H         3.4255496967        3.8526154943        4.4630829776
 H         2.2974112590        2.9210551838        3.3833597277
 H         2.6627187299        4.6480916921        3.1429889929
 H         5.7680398471        3.7323658526        3.3667981647
 H         6.0907596734        3.7679574130        1.6866876568
 H         5.3219089492        5.0935039824        2.4752691459
 H         2.2651394113        4.5968292730       -1.4145482284
 H         3.4094027869        5.9153118730       -1.4399007464
 H         5.0470089284        0.9116095148       -3.8692397567
 H         4.8446160155        1.1773191045       -2.2736270317
 H         3.5444097996        0.3715925545       -3.0753685781
 H         4.0113706066        5.8027847960       -4.3217867749
 H         2.5969047861        4.9940784751       -3.8579307981
 H         3.3650827354        4.4598275775       -5.2355687024
 H         6.2714584632        2.7333856938       -3.3546093257
 H         5.6429050310        3.1588483548       -4.9912762264
 H         6.2418862073        4.4803183184       -3.9228737749
 Na        1.9463621133        0.4554680127        1.0349355047
