155

 C         5.2236803116       -8.5627852575        1.1367675985
 C         5.7678894394       -7.2217581726        1.6766690431
 C         5.0925728819       -5.8641626315        1.2859348614
 C         3.6091931825       -5.8088432880        1.8891988588
 C         3.6102923112       -5.9099039741        3.3849596548
 C         5.9317724480       -4.7183052643        1.9725372304
 C         5.0160837658       -5.6267221421       -0.2494604668
 O         6.6554444314       -7.1427770559        2.4968720828
 O         2.6762795814       -5.4966128257        1.1727784008
 C         2.3871950839       -5.4073389011        4.1292399437
 C         2.5792893548       -3.7784576602        4.2486612932
 C         1.2836488136       -2.8495728294        3.6994074167
 C         1.6408995986       -1.2719844314        3.7095355365
 C         3.0848081718       -0.8199905158        3.8813762885
 O         3.5939600882       -3.3094801146        4.6708677443
 O         0.8109083502       -0.3842945679        3.6192976630
 C         0.9610724451       -3.2631879160        2.2285790210
 C        -0.0124864287       -2.8793631177        4.4694037167
 C         3.1925374074        0.7843940869        3.8759803412
 C         2.2279560286        1.3338600448        2.7209204875
 C         1.0745669516        2.4459716428        3.0446598296
 C         1.4588254709        3.7067225607        2.1409644047
 C         2.0375255901        4.9864959502        2.6171939134
 C        -0.3723909430        2.1149324924        2.7625981440
 C         1.1624872420        2.8349100545        4.5687945159
 O         2.4221743433        0.9176086425        1.5853521726
 O         1.0032425148        3.5952093884        0.9769914080
 C         3.2985805722        5.4346675521        1.8033354959
 C         4.4684272935        4.4373269025        1.7546932916
 C         5.7047530346        4.8583285407        0.8371532394
 C         5.2474478265        4.4742862467       -0.6167060054
 C         5.8914374362        3.3154947309       -1.3459305190
 O         4.4601017004        3.3358611184        2.2957935235
 O         4.4242574548        5.1954201973       -1.0987262105
 C         6.1564264740        6.3143214679        0.9047401087
 C         6.8620203075        3.9623330852        1.3055551521
 C         5.1952241999        2.7186875095       -2.6712630003
 C         4.0926608939        1.7707515547       -2.3044790939
 C         3.8589978581        0.4179700169       -3.2503433295
 C         2.5178228423       -0.1032706959       -2.8644287289
 C         1.3805072758       -0.1696109863       -4.0222319895
 C         4.1499568022        0.5693905964       -4.7295737220
 C         4.9796321161       -0.4835374232       -2.5283505029
 O         3.3850896884        1.8655899236       -1.3123363269
 O         2.1804143354       -0.4037281084       -1.7279166395
 C         0.0139963091       -0.1339468152       -3.3737791561
 C        -0.3743266213        1.1852517010       -2.6458868770
 C        -1.8420364958        1.3516819311       -2.1373666001
 C        -1.9650649043        0.3059321789       -0.9002865102
 C        -3.2308721516       -0.4986922153       -0.8328780821
 O         0.4904949825        2.0430855800       -2.4770214609
 O        -1.1942146896        0.4579881126        0.0243052630
 C        -2.0496164971        2.7054265942       -1.4801898696
 C        -2.8201433341        1.0810838369       -3.3413880273
 C        -4.4958012834        0.3833015653       -0.3574707941
 C        -5.7054922090       -0.5729909039       -0.3317729226
 C        -7.1607648835        0.1080698266       -0.0560534326
 C        -7.6076029769        0.7953510018       -1.3442201270
 C        -8.9581836179        0.4380413012       -1.9467057589
 C        -8.0863427989       -1.0564954138        0.4039294480
 C        -7.1457527061        1.2939007399        0.9220005121
 O        -5.6581223868       -1.7815123883       -0.5386372689
 O        -6.7723580834        1.4056135608       -1.9848623674
 C        -9.1090028814        0.8285851536       -3.4536112973
 C        -9.6562935523       -0.4603638878       -4.1611685076
 C       -11.0718466272       -0.2951381960       -4.9140609688
 C       -12.1012798949        0.2087667227       -3.9160310367
 C       -13.5536219134        0.2332606976       -4.4798642100
 O        -9.2258438837       -1.5909836552       -3.8912680720
 O       -11.9363875878        0.7102867052       -2.8182752603
 C       -11.0775749683        0.6886668222       -6.0922149590
 C       -11.3895315517       -1.7515224757       -5.3171247101
 H         4.8407542307       -8.4353998010        0.0696132525
 H         5.9925960246       -9.2738338248        1.0235015109
 H         4.4799575666       -8.8194965748        1.8317675824
 H         3.8644454547       -6.9380196537        3.4689188505
 H         4.6111369040       -5.3994232495        3.7581765121
 H         6.9000898422       -4.7085724848        1.4807656115
 H         6.1496685615       -4.9209080803        3.0600305056
 H         5.5042185480       -3.6521049026        1.8689204868
 H         4.1575286393       -6.2483634340       -0.6386849945
 H         4.7967283751       -4.5672151280       -0.3361411630
 H         5.9050018987       -6.0432913241       -0.7097360261
 H         1.4438656387       -5.6821236687        3.5854417284
 H         2.3066865523       -5.7761433926        5.1418642683
 H         3.5443047134       -1.1057342366        4.8507658950
 H         3.7241052341       -1.3060772248        3.1214711536
 H         1.0425374968       -4.3186445500        1.9731359231
 H         1.6413481089       -2.8014391375        1.5180636459
 H        -0.0581410457       -2.9160029675        2.0559590160
 H         0.2366855022       -2.5494295080        5.4745136808
 H        -0.6815972816       -2.0927158157        4.0207347267
 H        -0.5864664858       -3.8108807846        4.4216041699
 H         4.2066384691        0.9640496408        3.5357631658
 H         3.0917909789        1.1059545455        4.8366787436
 H         1.2992393540        5.7786611950        2.5706588489
 H         2.4641535658        4.8131885480        3.5880238944
 H        -1.0117665801        3.0138832388        3.0118659883
 H        -0.6548487482        1.2198660278        3.3728775393
 H        -0.4799112614        1.8812077891        1.7249576137
 H         0.9745759851        1.9957198139        5.2433288381
 H         2.1687693886        3.2875124167        4.6731122217
 H         0.4045200067        3.6124459604        4.6510192852
 H         2.9654019357        5.7655655806        0.8191771137
 H         3.6976086292        6.3624197172        2.2712511281
 H         6.9128797513        3.6782517677       -1.5609502066
 H         6.1261289284        2.4332747505       -0.6260533035
 H         7.0347232637        6.3932964537        1.5533511400
 H         5.2961073560        6.8241477557        1.2771327634
 H         6.5626081590        6.6263506855       -0.0974290502
 H         7.6659607523        4.0751203398        0.5991345715
 H         7.1030272570        4.4116254221        2.2814983622
 H         6.5901392949        2.9238718974        1.4606874613
 H         6.0073548325        2.2844029338       -3.2240366814
 H         4.8834108439        3.6510041401       -3.1864604894
 H         1.4532913120        0.5386003201       -4.8132736180
 H         1.5164059459       -1.1720150081       -4.5062598487
 H         5.2118107391        0.8353328414       -4.9012671758
 H         3.5276606672        1.4121478594       -5.1562778993
 H         3.9571356558       -0.4060229415       -5.1744379968
 H         5.9575053713        0.0238613573       -2.5632860918
 H         4.6620205811       -0.5209602182       -1.4421341245
 H         5.0088114027       -1.4346912073       -2.9813517077
 H        -0.6429396658       -0.4963228258       -4.2189781194
 H         0.0174059460       -0.9916701793       -2.6754980850
 H        -3.4513571804       -0.9325237731       -1.8518477683
 H        -3.0336717455       -1.1500455070       -0.0067864862
 H        -1.1746810993        3.1363507919       -1.0786005604
 H        -2.7891644607        2.6920157613       -0.6249966769
 H        -2.2930495741        3.4820001644       -2.1917184809
 H        -3.8626746061        1.2929541040       -3.1594957062
 H        -2.5295913448        1.5737706422       -4.2708355198
 H        -2.7643344749        0.0144722679       -3.7809392405
 H        -4.6322091136        1.2281746322       -1.0849704588
 H        -4.1920964787        0.7881941084        0.6273475202
 H        -9.1480813547       -0.6667590835       -1.8694568216
 H        -9.8020367875        0.8629929829       -1.4162422869
 H        -7.6298441328       -1.6164601666        1.2166119511
 H        -8.3086838392       -1.7406425798       -0.4343949059
 H        -9.0309532392       -0.6377048242        0.6989212800
 H        -8.2003660144        1.3130802729        1.2159154569
 H        -6.5776269853        1.0343023338        1.7724732623
 H        -6.7787725940        2.2107476539        0.5038721401
 H        -9.8611309712        1.5924973261       -3.5829170596
 H        -8.1874388860        1.2200719562       -3.9086719563
 H       -14.0879281392       -0.6411935247       -4.0768390501
 H       -13.9831103663        1.1861095602       -4.1211905782
 H       -13.6121961107        0.2112391317       -5.5901518777
 H       -10.9076649789        0.0845365406       -7.0079035579
 H       -10.2319221131        1.4460253336       -6.0050801123
 H       -12.0425987583        1.2898235677       -6.2021857807
 H       -12.2058091160       -1.8347794458       -6.0526716791
 H       -10.4246666185       -2.1670179796       -5.7741693443
 H       -11.6451696763       -2.3985477809       -4.5236063880
 Na        1.2761198528        1.4772594198       -0.3214181108
