155

 C        -4.7880930594        0.6866051774       -4.2158223494
 C        -5.5888959648        1.4554974450       -3.2571637287
 C        -7.1968217058        1.3831190918       -3.3352829066
 C        -7.6510720804       -0.0689391127       -2.8391792242
 C        -8.3103232596       -0.3589026005       -1.5027214609
 C        -7.8296146851        2.4306621087       -2.4696508366
 C        -7.7893056418        1.4824370403       -4.7826515749
 O        -5.0924667210        2.1023924251       -2.3419451060
 O        -7.6306956329       -0.8489719703       -3.7464342057
 C        -8.5576332932       -1.7755291755       -1.1632653856
 C        -7.7183973542       -2.3398433502       -0.0231059931
 C        -7.4893088816       -3.8946363141        0.0598649445
 C        -6.2054147042       -4.4182116704       -0.8819466699
 C        -5.1018396855       -3.4222905480       -1.3286721120
 O        -7.1459041332       -1.5819610752        0.6794899459
 O        -6.2211521078       -5.5508760721       -1.2729699830
 C        -7.2512178500       -4.2448123947        1.5564816896
 C        -8.6443020279       -4.6116798637       -0.5462862949
 C        -4.3456723781       -3.8857867186       -2.6486834199
 C        -3.1784056176       -2.9828986528       -3.0267979357
 C        -1.6776669157       -3.0862838711       -2.4250305717
 C        -1.3532662076       -1.6253499397       -1.9138542674
 C        -1.1368885553       -0.4793834207       -3.0051551648
 C        -1.4169413380       -4.0423764156       -1.2077287099
 C        -0.6830234319       -3.5465118877       -3.6113049104
 O        -3.2841780453       -2.2415451770       -3.9636840559
 O        -1.5444413479       -1.3076836314       -0.7380896960
 C        -1.2169821683        0.9442448974       -2.2877731438
 C        -0.5346370671        0.9203755739       -0.8916705923
 C        -1.4186307328        1.5174262019        0.3071148655
 C        -0.7867764605        1.0970285664        1.6725717427
 C        -1.1308673645       -0.2533382116        2.2654155060
 O         0.6430798530        0.5968618202       -0.7151579485
 O         0.0781442691        1.7612615447        2.1933481246
 C        -1.4284287637        3.0707072166       -0.0232914827
 C        -2.9682892568        1.0376130215        0.1805209237
 C        -0.5671178604       -0.6187291395        3.6316362703
 C         0.8091754608       -1.2712672701        3.7320149310
 C         1.1419089472       -2.2566959063        4.9655992265
 C         2.1641052531       -3.3322561196        4.2289826383
 C         3.7225726480       -2.8871552116        4.1237166861
 C         1.6283011092       -1.4628544624        6.2444553507
 C        -0.1532012855       -3.0894932990        5.1072135867
 O         1.6153929161       -1.2282919954        2.8215390721
 O         1.7541834630       -4.2843650405        3.5860414943
 C         4.3238869436       -3.1561471145        2.7672003250
 C         5.6958495301       -2.5067082906        2.4118078858
 C         5.8311861501       -2.1125509662        0.7994966169
 C         5.1214294847       -0.7380639634        0.6143843240
 C         5.7773420550        0.6219150602        0.6816173082
 O         6.7138465652       -2.3243963695        3.0879708725
 O         3.8592838773       -0.7681101479        0.4758762234
 C         7.3498557496       -2.0232707812        0.4873731013
 C         5.1783100506       -3.1424201728       -0.1220833220
 C         5.6794671440        1.1169672007        2.1457253523
 C         4.3537404268        1.6922822547        2.5740336839
 C         3.9960514912        3.2099714665        2.4032762219
 C         3.4879496693        3.3914585719        0.9749129415
 C         3.3578070586        4.8344139097        0.4090205525
 C         2.7920802419        3.5009580605        3.4165877539
 C         5.2781562622        4.0344044857        2.7046134210
 O         3.5653956108        0.9195744738        3.0449790891
 O         2.8731163235        2.5511416847        0.3555995988
 C         3.2874901357        4.9281577214       -1.2001140494
 C         4.2686469200        4.0395861931       -1.8814915756
 C         4.1315766747        3.8790691064       -3.4441009900
 C         3.4646188355        2.4447365049       -3.6331564450
 C         4.0383653438        1.2167391233       -2.9976176207
 O         5.2007284494        3.6848542813       -1.2013028553
 O         2.3718212748        2.3590935539       -4.1532448367
 C         3.3779745265        4.9873456935       -4.1311954824
 C         5.6011845161        3.6749619598       -4.0925653449
 H        -4.9646670564        0.6589728827       -5.2295733292
 H        -3.7405777763        0.8521193553       -4.1612244927
 H        -4.8852947573       -0.3157096317       -3.8936213421
 H        -7.8645392838        0.3084004865       -0.7527552016
 H        -9.2971411819        0.1324788169       -1.6712762044
 H        -7.9429264604        3.3812385058       -3.0024601343
 H        -7.1456987021        2.6520101627       -1.6249193808
 H        -8.9336620555        2.1044224949       -2.2632476293
 H        -7.4033873770        0.6974621215       -5.5655639372
 H        -8.8593309459        1.2599775172       -4.6810490881
 H        -7.6352284715        2.4837236379       -5.1638429691
 H        -9.7250709979       -1.9309620716       -0.8781811711
 H        -8.4341781446       -2.4369679344       -2.0256198135
 H        -5.5417688698       -2.4123653624       -1.4788189045
 H        -4.3588002728       -3.3419834320       -0.5619563754
 H        -7.0101876761       -5.3215485711        1.7579917808
 H        -8.1890292705       -4.1097356118        2.0973141584
 H        -6.4868763627       -3.6827776197        1.9665111995
 H        -8.6708610567       -4.3330647321       -1.5935865689
 H        -8.5078304204       -5.7380299949       -0.3616921780
 H        -9.5504432386       -4.3120878972        0.0802914941
 H        -5.1301581854       -4.0650261661       -3.3883210952
 H        -3.8691305332       -4.8458304341       -2.3761299647
 H        -0.1306519654       -0.5497294549       -3.5196687618
 H        -1.9217985996       -0.5903373689       -3.6961626154
 H        -2.0155191162       -4.9131080096       -1.3165408480
 H        -1.7082778540       -3.6003495119       -0.2142607174
 H        -0.3722430217       -4.2752869425       -1.1161550799
 H         0.3007421601       -3.9352408148       -3.1918937410
 H        -1.0599487369       -4.3041969778       -4.2969107069
 H        -0.4154181903       -2.7353411258       -4.3903743985
 H        -0.7550433829        1.5803803892       -3.0176954205
 H        -2.2631710823        1.2138189868       -2.0704987831
 H        -2.1625284095       -0.6208079158        2.3959460595
 H        -0.7443003879       -0.9556836752        1.5172806178
 H        -0.4849722801        3.6245221199        0.3276983977
 H        -2.2337598448        3.5440954310        0.4770243442
 H        -1.4416404674        3.2373411384       -1.0947153031
 H        -3.4314177307        1.2774129159        1.1241062316
 H        -3.4578307487        1.7794533009       -0.4443563051
 H        -2.9478497455        0.0312890567       -0.1255964503
 H        -1.1294267233       -1.4448365501        3.9936258711
 H        -0.5903758989        0.2030556620        4.3750089455
 H         3.7781569188       -1.7943552916        4.4381654860
 H         4.3033861405       -3.4386534228        4.9454307139
 H         0.8761301710       -1.3621719130        6.9611090309
 H         1.9945643452       -0.4309136843        6.0302711340
 H         2.3009979076       -2.1161544232        6.6894325677
 H         0.1317602462       -3.8747552178        5.8261035452
 H        -0.7713694057       -2.4087344807        5.6304352419
 H        -0.5615088069       -3.5969979724        4.2986228995
 H         4.4732481198       -4.1933005895        2.7338588670
 H         3.5963919323       -2.7996319447        2.0217758699
 H         6.8139026205        0.5812873170        0.3265969060
 H         5.1917689724        1.3670074781        0.0781419835
 H         7.8507127704       -1.5365664054        1.3047154754
 H         7.5501237495       -1.4227457578       -0.4550408583
 H         7.9589821602       -2.8918351170        0.3177385920
 H         4.1012241582       -2.8850168794       -0.1616319958
 H         5.5502565983       -3.2449380728       -1.1403733185
 H         5.3899159808       -4.1525249866        0.3113103864
 H         6.5341862481        1.7363411601        2.3494431636
 H         5.7712279059        0.2246056460        2.7409942181
 H         2.4802335046        5.2519268043        0.8082434971
 H         4.2661037400        5.3729055594        0.6953325110
 H         3.1751507553        2.8735314003        4.2645243165
 H         1.8995045638        3.0112695075        2.9269461083
 H         2.7731695480        4.4770226945        3.8982321016
 H         5.9987500521        3.6113803290        3.4623095269
 H         5.7947984805        4.2626654320        1.7979008010
 H         5.0909741321        5.0723834287        3.1888878931
 H         2.2459910245        4.7004930169       -1.4540430729
 H         3.3324426438        5.9596811968       -1.4420526520
 H         4.9272012979        0.7673578581       -3.3893523205
 H         4.3952185615        1.4113261986       -1.9686854133
 H         3.1805724662        0.4643553472       -2.8940829464
 H         3.8763832910        5.9683679878       -4.0245943740
 H         2.3114139990        5.0800549581       -3.7354750308
 H         3.3340505168        4.9432536872       -5.1595051006
 H         6.1391431690        3.3316940566       -3.2556023576
 H         5.4937983522        2.8140192324       -4.7540835235
 H         5.9803377117        4.5617070056       -4.6066048368
 Na        1.9878366541        0.4855492316        1.1762443316
