155

 C        -4.8173845637        0.9105720484       -3.5383714747
 C        -5.8764583563        1.5806444028       -2.7112204346
 C        -7.4428364842        1.3858108846       -3.2857144819
 C        -7.6755349997       -0.1007868726       -2.9961293036
 C        -8.4138213851       -0.4911214736       -1.7171949058
 C        -8.4825114529        2.3934705341       -2.7036023146
 C        -7.4167523505        1.5106090839       -4.8419825637
 O        -5.6345367968        2.1657608998       -1.7271891324
 O        -7.1497479406       -0.9415015010       -3.6420567120
 C        -8.4709117700       -1.9864442628       -1.3426692654
 C        -7.4672065232       -2.5046338845       -0.3679295420
 C        -7.1559682105       -4.0578750824       -0.2724593823
 C        -5.8980706918       -4.3526940213       -1.1569189142
 C        -5.0350112398       -3.2273616731       -1.6139759124
 O        -6.8912891320       -1.7316055579        0.3658293927
 O        -5.6050533729       -5.5319728614       -1.3843209933
 C        -6.6774388810       -4.4160516678        1.1945611488
 C        -8.4128172323       -4.9575775575       -0.7326898175
 C        -4.2031551161       -3.7467810301       -2.8350307575
 C        -3.1485654129       -2.8150710609       -3.2200232401
 C        -1.6607777753       -3.0088018089       -2.6878692082
 C        -1.3022216507       -1.6401495235       -2.0326365126
 C        -0.5434597515       -0.5524785146       -2.8955628286
 C        -1.5639855776       -4.0428764393       -1.5355201714
 C        -0.6823760803       -3.4439683193       -3.8439611865
 O        -3.3155129435       -2.0022052451       -4.1114447822
 O        -1.5788607365       -1.3891566174       -0.8769637475
 C        -0.8746494713        0.8841827612       -2.3707390361
 C        -0.5402306286        0.8349500903       -0.8839114932
 C        -1.5325069851        1.4178423014        0.2468262707
 C        -0.9118327264        0.9590529431        1.7055088213
 C        -1.3108090223       -0.3947152866        2.4351154195
 O         0.5625060864        0.4037232318       -0.4767836855
 O        -0.0904818560        1.7300959781        2.1689403901
 C        -1.5310970470        2.9530593261        0.0742392714
 C        -3.0336410537        1.0733919688        0.0063579718
 C        -0.6912844616       -0.7887293740        3.7648426713
 C         0.6071602652       -1.5669275145        3.5724406640
 C         1.0173194318       -2.5843215693        4.6127053196
 C         2.2254338085       -3.3611300677        4.2209430817
 C         3.4633601417       -2.6226658332        3.8160484168
 C         1.3481783629       -1.7302481800        5.9808412705
 C        -0.1133620172       -3.5319506953        5.0393342944
 O         1.3953945088       -1.2459262834        2.6823838663
 O         2.0570453222       -4.5874196895        4.0535815681
 C         4.0272522179       -2.9363967596        2.4771425016
 C         5.4347401645       -2.5982032178        2.3704216343
 C         6.0188139198       -2.0358433107        0.9785224494
 C         5.3594548189       -0.5774127954        0.8435568286
 C         6.1010554751        0.7191441614        1.0338281207
 O         6.1992882951       -2.6375666442        3.3328095623
 O         4.1073945997       -0.5691567290        0.5925922354
 C         7.5349234831       -2.0152995248        1.1067795878
 C         5.4757501932       -2.8635610298       -0.1813944307
 C         5.9936177928        1.4053050910        2.3922718611
 C         4.5347453535        1.7692663732        2.7320041092
 C         3.9713870670        3.2487566279        2.6259450058
 C         3.5891589633        3.3973583002        1.1293155592
 C         3.5735647819        4.8425487109        0.4370249231
 C         2.5618921938        3.3269862011        3.2911965580
 C         4.8970744313        4.3337613001        3.0425014550
 O         3.7415763333        0.8916944254        3.0543678852
 O         3.2196547321        2.4288573157        0.4881563746
 C         3.1601172239        4.9801407758       -1.0362089294
 C         4.1909678040        4.3092037254       -1.9533295873
 C         3.8840168236        4.0047079878       -3.4229661188
 C         3.1012144403        2.6238556501       -3.4833586051
 C         3.7409073278        1.4263584974       -2.7721081328
 O         5.1644700534        3.8248313891       -1.4754239656
 O         2.0845461839        2.5165113720       -4.1568985667
 C         2.9912364989        5.0853989423       -3.8974739405
 C         5.1958480532        3.9005441507       -4.2457796236
 H        -4.3701433067        1.3460826416       -4.4618121199
 H        -4.0276045231        0.7412857054       -2.9175417895
 H        -5.1291994005       -0.1151596002       -3.8875353267
 H        -7.8414028922       -0.0237165939       -0.9010885336
 H        -9.4139498496       -0.0182615030       -1.7072047846
 H        -8.3474239402        3.3699543676       -3.1306923886
 H        -8.2636812292        2.4124421306       -1.6084398524
 H        -9.5306633899        2.0471616168       -2.9298634772
 H        -7.0859678402        0.5880617819       -5.1405732509
 H        -8.3509911168        1.7791450796       -5.2524352298
 H        -6.7666312057        2.3181396793       -5.1884311763
 H        -9.5611783542       -2.0493873992       -0.9112544467
 H        -8.3174076070       -2.6177473683       -2.2169932893
 H        -5.6546573247       -2.3572490097       -1.9359491331
 H        -4.3989841441       -2.7858874000       -0.8825181490
 H        -6.2841853748       -5.4958536877        1.1731780686
 H        -7.4719176440       -4.2487719870        1.9714092340
 H        -5.8282051550       -3.8410743398        1.4972407588
 H        -8.6412176738       -4.6821965897       -1.7673681133
 H        -8.0201188192       -6.0387022671       -0.5993833647
 H        -9.3183526684       -4.6268477478       -0.1450660945
 H        -4.9763215604       -3.8220715081       -3.6313219448
 H        -3.9012007760       -4.7453956685       -2.5345845054
 H         0.5230805663       -0.7739306367       -2.6016446968
 H        -0.7448791681       -0.6282285142       -3.9070456904
 H        -1.3392693206       -5.0087146995       -1.9617910556
 H        -2.4252421632       -4.0535619413       -0.9054815214
 H        -0.6875082418       -3.8347397354       -0.9028016108
 H         0.2835650306       -3.0742736715       -3.6588440387
 H        -0.5220172542       -4.5261435485       -3.8236783125
 H        -0.9573637029       -3.2943451214       -4.9332139792
 H        -0.3037012820        1.7230441255       -2.7625586540
 H        -1.9897099401        0.9956297808       -2.4574661523
 H        -2.4383486779       -0.5900178843        2.4945257206
 H        -1.1035894655       -1.2650151326        1.7424292273
 H        -0.6096855871        3.3641186991       -0.3451461851
 H        -1.7697002949        3.4582029140        1.0553492102
 H        -2.2938436947        3.2180809288       -0.5716242247
 H        -3.5945055492        1.7174288741        0.6633668945
 H        -3.0577669303        1.3451844082       -1.0431206379
 H        -3.2148579559        0.0059148497        0.1465812519
 H        -1.2781335657       -1.4085319535        4.4049287637
 H        -0.4099326605        0.0927526132        4.3871218099
 H         3.2900375359       -1.5356074405        3.8019810770
 H         4.3494063944       -2.9530751407        4.4875497078
 H         0.7728712250       -0.7979653355        6.0209078654
 H         2.4839160710       -1.6055861778        6.0989954566
 H         1.1083574249       -2.3963070339        6.7921309884
 H         0.2699926901       -4.4703733924        5.5712717945
 H        -0.9146559152       -2.9799784835        5.4797795123
 H        -0.5464327857       -3.7807319638        4.1089118362
 H         4.0048058467       -3.9626678644        2.2374532126
 H         3.5127493458       -2.3551479418        1.6926768331
 H         7.1514445148        0.6355155651        0.7158149898
 H         5.6340964511        1.4824364514        0.3715068101
 H         7.9218914685       -1.4204905113        1.9397666351
 H         7.9171194407       -1.5363459372        0.1879107664
 H         8.0443128632       -2.9150857288        1.2702815181
 H         4.4084175229       -3.0333060366       -0.1662883996
 H         5.6213627617       -2.3511261892       -1.1539628268
 H         5.9232157747       -3.8529168315       -0.1068542886
 H         6.6544777293        2.2412521820        2.2887324947
 H         6.3841259640        0.7738954463        3.1403726920
 H         2.8876205106        5.4179657843        1.0437777283
 H         4.6268179412        5.2252590383        0.4238272317
 H         2.7574570101        3.7662093151        4.3220918041
 H         2.0538701504        2.3397790770        3.2594841000
 H         1.9647759011        4.0534968133        2.6999202454
 H         5.3244083040        4.3042995405        4.1081102860
 H         5.7367349641        4.4119562919        2.3356237254
 H         4.4147533618        5.2964369208        3.0529714490
 H         2.2664019101        4.3124164282       -1.1040642200
 H         2.7141049771        5.9521181215       -1.1828037901
 H         4.8163000643        1.3718193408       -2.8148905654
 H         3.5958703884        1.5560421565       -1.7234639460
 H         3.3301042890        0.4110535521       -2.9940552219
 H         3.5290744397        5.9278160308       -3.9769022413
 H         2.1522041445        5.2446350960       -3.2999771381
 H         2.6484749104        4.9780145133       -4.9379524326
 H         5.4430834252        2.8861881485       -4.0242926052
 H         4.9395693656        4.0938821721       -5.2639086029
 H         6.0020965780        4.5770879020       -3.8818784108
 Na        1.9891016046        0.5690783360        1.2511505090
