155

 C        -4.7898698371        1.1069507569       -3.3547752517
 C        -6.0081370827        1.6708020666       -2.6510691393
 C        -7.3714759992        1.3266560071       -3.2704414170
 C        -7.6807043587       -0.1272154985       -2.8273233503
 C        -8.5175992112       -0.6090492805       -1.6403183289
 C        -8.4350675251        2.3985060301       -2.7698593508
 C        -7.2938355928        1.4816859511       -4.8277928468
 O        -6.0876876007        2.1513011156       -1.4911484211
 O        -7.0680655288       -1.0064899802       -3.4543037115
 C        -8.4478796318       -2.1761030198       -1.4889092872
 C        -7.4229234348       -2.5758094253       -0.4251935281
 C        -6.9834400679       -4.1104680442       -0.3723161235
 C        -5.7780513090       -4.4062612881       -1.3121069738
 C        -5.0656430043       -3.3417050094       -2.0725369198
 O        -6.7396605501       -1.7205244623        0.0933137030
 O        -5.4530383977       -5.5497577005       -1.4657029673
 C        -6.5708439618       -4.3657586982        1.1901187178
 C        -8.1303588810       -5.1716915326       -0.7605774969
 C        -4.1302820100       -3.7995051928       -3.2415788145
 C        -3.0073047633       -2.7477240968       -3.4127606387
 C        -1.6555182455       -3.0691761631       -2.7552019541
 C        -1.2922853152       -1.6930677943       -2.0897228566
 C        -0.6925918391       -0.6126639064       -2.9325946477
 C        -1.6108598138       -4.1720257661       -1.6938514867
 C        -0.6937569398       -3.3298015545       -3.9707271622
 O        -3.1835641289       -1.7940546465       -4.1380368266
 O        -1.5560196303       -1.5136401431       -0.8916472767
 C        -0.8917885577        0.7081796506       -2.2348668286
 C        -0.4064650840        0.7811624570       -0.6860022268
 C        -1.3894620630        1.3833976533        0.3107423854
 C        -1.0182643125        0.9150674671        1.7329085718
 C        -1.7111676200       -0.2671959995        2.3358810184
 O         0.7421202796        0.5536862243       -0.3957511654
 O        -0.1404185513        1.5440133478        2.3118463565
 C        -1.2007498466        2.9729281986        0.1949079101
 C        -2.8598078758        0.8656808204        0.1504201750
 C        -0.9423724767       -0.8081084423        3.5195530462
 C         0.4658732313       -1.5600154941        3.3384324187
 C         0.8784984269       -2.5384604023        4.5413970893
 C         2.1873922290       -3.4507994825        4.2418544885
 C         3.4991229987       -2.7692906427        3.9744737599
 C         1.2442200905       -1.8239512271        5.8929430794
 C        -0.3797849528       -3.4518771644        4.6927307260
 O         1.2116602664       -1.3782346889        2.4303808763
 O         2.1393193230       -4.6392872733        4.3195202848
 C         3.9208078709       -2.9066580787        2.3900460581
 C         5.4566981963       -2.5115656705        2.3198993509
 C         6.1075933541       -1.9098524950        1.0369863090
 C         5.3864762866       -0.4941763169        0.9046616762
 C         6.1848131652        0.8259096666        1.0819616384
 O         6.1434208923       -2.6552043926        3.3307961269
 O         4.2159945316       -0.4015667421        0.7469819812
 C         7.5996988637       -1.8170593169        1.2558337182
 C         5.8332356149       -2.7311645510       -0.2208875365
 C         5.9960574215        1.5591825646        2.4751705179
 C         4.5263411618        1.7648721023        2.8413826666
 C         3.9118266578        3.1639374833        2.7178413739
 C         3.4277597845        3.4295257778        1.1403952867
 C         3.6536917801        4.8624667249        0.6118135946
 C         2.5214232730        3.3351958390        3.5436394413
 C         4.8685937266        4.2543733393        3.2634741044
 O         3.7818491305        0.9124109918        3.2819440901
 O         3.1053846118        2.5542943549        0.3624899758
 C         3.2686670937        4.9220860302       -0.9608341718
 C         4.2635409073        4.3153377431       -1.9640538039
 C         3.6919067253        4.0586507471       -3.4129357001
 C         2.8904735575        2.6507383207       -3.4773174024
 C         3.5887741841        1.5608353738       -2.7666650019
 O         5.3653546153        3.8592156376       -1.6161791582
 O         1.8281141292        2.5203145038       -4.0300756309
 C         2.8586324915        5.1853264213       -3.9331060654
 C         4.9268782464        3.9524204675       -4.3664005826
 H        -4.2850905340        1.8477852742       -3.8802880830
 H        -3.9990997630        0.6131565809       -2.7468423119
 H        -4.9896929181        0.4397104307       -4.1598025218
 H        -8.2773303187       -0.0078689716       -0.7541266080
 H        -9.5297181741       -0.3789457601       -1.9898009180
 H        -8.7685602857        3.0283851143       -3.6397480033
 H        -8.0140482084        2.9770521179       -1.9521241907
 H        -9.3188515802        1.8694252823       -2.3622969568
 H        -6.7571699888        0.5113169550       -5.2821091235
 H        -8.3198526062        1.6895580248       -5.2593723388
 H        -6.7529277939        2.4061579928       -5.1057376693
 H        -9.4382040916       -2.4682015341       -1.2693047531
 H        -8.1017449960       -2.4602524956       -2.5469390499
 H        -5.6446228908       -2.5193183263       -2.4610543909
 H        -4.4296417034       -2.7384559486       -1.3805553327
 H        -5.9914501778       -5.2212507094        1.3399107468
 H        -7.4156486628       -4.3036361382        1.8186393461
 H        -5.9578584327       -3.5031657718        1.5108988994
 H        -8.4877573681       -4.9959529955       -1.7790872735
 H        -7.6124289764       -6.0792974209       -0.6687382201
 H        -8.9690206523       -4.9843920078       -0.1072103662
 H        -4.7660356668       -3.8785267553       -4.0818486294
 H        -3.7833983342       -4.7999053119       -2.9560251553
 H         0.3613227238       -0.7120085183       -3.0965012077
 H        -1.3348099116       -0.5837924766       -3.8965852012
 H        -1.9922275626       -5.1075707470       -2.0664293665
 H        -2.1585571884       -3.7840892447       -0.7772810969
 H        -0.6066993270       -4.4220907284       -1.4634972811
 H         0.4531591942       -3.2902454804       -3.7416081872
 H        -0.8475885049       -4.2660985897       -4.4926435248
 H        -0.8831534089       -2.5978515248       -4.7570910388
 H        -0.2786299543        1.4772079984       -2.7409662560
 H        -1.9195215666        0.9894756936       -2.3072460655
 H        -2.6541965222        0.0069659918        2.6725120189
 H        -1.9655532605       -1.0326948170        1.6531929330
 H        -0.1193960412        3.1971282343        0.0992100513
 H        -1.5971751059        3.4760858212        1.0222443595
 H        -1.7806026024        3.3726148963       -0.7277939397
 H        -3.2090165127        1.1693108495        1.1198984277
 H        -3.2612768144        1.2154059010       -0.7779916189
 H        -2.8745586413       -0.1881617833        0.1291142404
 H        -1.5759537517       -1.4370674004        4.1828727059
 H        -0.6596414969        0.0047377113        4.1802754298
 H         3.4373665004       -1.6797156286        4.1467244978
 H         4.1956234872       -3.3021316310        4.5455516906
 H         0.3316970112       -1.4444736558        6.2277849583
 H         1.9391512251       -1.0891365131        5.6185260146
 H         1.8301090754       -2.3581708428        6.6022306645
 H        -0.0430859508       -4.3200327570        5.1224444798
 H        -1.1442739524       -3.0257884857        5.3594804035
 H        -0.9365213217       -3.5526925212        3.7405744122
 H         3.7273706895       -3.9324497167        1.9226730054
 H         3.3465974401       -2.1850334977        1.8238932390
 H         7.2520524107        0.6675564891        0.9160428614
 H         5.8663427132        1.5095519940        0.2913362013
 H         7.9450189424       -1.3958244405        2.1785643724
 H         8.1815716646       -1.3584757887        0.4544708669
 H         7.9516865736       -2.8874761429        1.3705910147
 H         4.8262505002       -2.6901950551       -0.6817268129
 H         6.4853086094       -2.2806275403       -0.9272334867
 H         5.9886609965       -3.8049455223       -0.0256132796
 H         6.4718657568        2.5467529029        2.3511436850
 H         6.6324055840        0.9874947842        3.2052927493
 H         3.0786087420        5.5162764686        1.2867424574
 H         4.6874781763        5.0994068744        0.6824972093
 H         2.8067423473        3.5253379938        4.5461571734
 H         1.9404030754        2.3876241717        3.4216786280
 H         1.9478544611        4.1703265062        3.0819608907
 H         5.3794306373        3.9630818548        4.1444595758
 H         5.6628477027        4.5074525157        2.5835938695
 H         4.3592938175        5.2480126396        3.5674731650
 H         2.2696849547        4.5622942863       -1.1117114994
 H         3.1616953170        5.9839611554       -1.2357541328
 H         4.6177333295        1.7860089315       -2.5010094214
 H         3.0859953265        1.1982376320       -1.8139337889
 H         3.6668804304        0.6787222450       -3.4053236522
 H         3.3954176464        6.2141265073       -4.1646847703
 H         1.8942451881        5.4046683163       -3.3300341236
 H         2.5007039913        4.9035355123       -4.9048992254
 H         5.5403592498        3.0597466189       -4.2311425300
 H         4.4022186170        4.1348086496       -5.3233461972
 H         5.4516484117        4.8389463354       -4.1660566137
 Na        2.1418646402        0.5101633386        1.4127854312
