155

 C        -4.9091839612        1.5687340849       -3.0176450806
 C        -6.1962495002        1.6770387425       -2.3304856418
 C        -7.5205210879        1.1569617965       -3.1241824523
 C        -7.6915793069       -0.4465143091       -2.9298061277
 C        -8.6633575965       -0.8758651884       -1.8437497969
 C        -8.8047920159        1.9007287256       -2.6341038654
 C        -7.2480466864        1.3090034501       -4.6485367596
 O        -6.3242769919        2.1093843511       -1.2039348492
 O        -6.9267895062       -1.2026619329       -3.4927264451
 C        -8.5472065496       -2.3551503414       -1.4077938917
 C        -7.1657586612       -2.6314042793       -0.7692658008
 C        -6.7412125249       -4.1315592315       -0.6457262413
 C        -5.6311025878       -4.4013266332       -1.6903805991
 C        -5.0478308794       -3.2843977855       -2.5989208905
 O        -6.4112194145       -1.7612794172       -0.4610749093
 O        -5.1222396831       -5.4925835356       -1.6979560500
 C        -6.0117052820       -4.3875875477        0.7433495315
 C        -7.8996088759       -5.0813828303       -0.8480304395
 C        -4.0181009448       -3.7301981356       -3.7586869652
 C        -2.9311893982       -2.6770887269       -3.8067039970
 C        -1.5570430064       -3.0598513536       -3.0035690046
 C        -1.0777669188       -1.8901170693       -2.2075642305
 C        -0.5595985920       -0.6470416114       -2.8689820360
 C        -1.7231644151       -4.2636193425       -2.0411626950
 C        -0.5769952897       -3.3730977049       -4.1885738811
 O        -2.9906275617       -1.6473598526       -4.4170903618
 O        -1.1218147257       -1.8547475395       -0.9534866984
 C        -0.8689911165        0.6407641463       -2.1235129799
 C        -0.3075274408        0.8334354173       -0.7526591547
 C        -1.1262677382        1.6422049269        0.3056674764
 C        -0.7877574882        0.8535628002        1.7171063713
 C        -1.7269391176       -0.2322819419        2.2855478101
 O         0.7835925224        0.3423807582       -0.4599867333
 O         0.1332562421        1.2339448942        2.4454462970
 C        -0.6598428773        3.1282579217        0.4808059869
 C        -2.6787085247        1.4367243960        0.1291842167
 C        -1.0748579357       -1.0172149903        3.4398930942
 C         0.2500820894       -1.7287100526        3.3002798704
 C         0.6143733860       -2.8473698937        4.4614260981
 C         2.1130753170       -3.4217483623        4.0935677041
 C         3.2914460231       -2.4638451909        3.8342228369
 C         0.7623947243       -2.1223638716        5.9139791998
 C        -0.4352764691       -3.9206912186        4.5516556477
 O         1.0181192021       -1.7512287878        2.3481875028
 O         2.2360552502       -4.6420592959        3.9685265160
 C         4.0577776443       -2.9441455784        2.5324482256
 C         5.4989961322       -2.4445352114        2.6471963953
 C         6.0539889472       -1.5818039624        1.2757832058
 C         5.3144911003       -0.2485153980        0.9961507833
 C         6.0059083681        1.1686252132        1.2564189199
 O         6.2694000971       -2.6579600215        3.5496472714
 O         4.1559969640       -0.2358816312        0.6377295685
 C         7.6153832293       -1.3130307168        1.5144210286
 C         5.9755135945       -2.5968385473        0.0725319588
 C         5.9089206272        1.6354137169        2.7196564646
 C         4.4784047164        1.8577940913        2.9496543299
 C         3.8422885136        3.3514955607        2.8658290045
 C         3.5449130816        3.5016880726        1.4002119042
 C         4.1246808524        4.7193664410        0.6562139551
 C         2.5431368639        3.4127729017        3.6723456695
 C         4.8531327330        4.3424558497        3.3894396553
 O         3.7585997386        0.9034727070        3.1936749318
 O         2.6815258448        2.8125151647        0.8457161047
 C         3.4139613007        4.9290910207       -0.7637637266
 C         4.1509690879        4.2258677694       -1.9060775746
 C         3.3891786983        4.0837399914       -3.2932226272
 C         2.5216985415        2.8252611995       -3.1982091135
 C         3.3276924677        1.5095983247       -2.8840182887
 O         5.3445275007        4.0344626492       -1.8407831109
 O         1.3238286069        2.7378056203       -3.2957870508
 C         2.5101269126        5.3547916340       -3.6364646071
 C         4.4835688938        3.8852928203       -4.3833841000
 H        -4.9975876659        1.9495513727       -3.9824041263
 H        -4.2239678181        2.1437313186       -2.5350765617
 H        -4.4628239724        0.5990683972       -3.1977761556
 H        -8.5659679622       -0.2536157699       -0.9334000544
 H        -9.6385258170       -0.6448164936       -2.3157722758
 H        -8.5402533461        2.9721340597       -2.5404741565
 H        -9.1848782192        1.5600964002       -1.6456747875
 H        -9.7191678853        1.7899844422       -3.3377508286
 H        -6.3510508971        0.7505836156       -5.0503908078
 H        -8.1551815007        0.9257104218       -5.1643425528
 H        -7.0322896685        2.3998241469       -4.8239642489
 H        -9.3566842710       -2.4146806462       -0.7199243757
 H        -8.5729177184       -2.8874272188       -2.3719709661
 H        -5.7988751165       -2.7217205740       -3.1078602813
 H        -4.5768233152       -2.4264348091       -2.0944524541
 H        -5.8449737274       -5.4850724370        0.8939090538
 H        -6.6525761348       -4.0464550161        1.5904357770
 H        -5.0803366875       -3.8348219177        0.7781633211
 H        -8.1500287621       -5.1881339492       -1.9006547702
 H        -7.4656095777       -5.9998101207       -0.3581677167
 H        -8.6881084883       -4.6151686501       -0.1469097211
 H        -4.4296865342       -3.8294010576       -4.7287217820
 H        -3.6264230435       -4.7107763227       -3.4304697633
 H         0.4689328160       -0.6996053287       -3.1180864507
 H        -1.1037533904       -0.3712207466       -3.8336281445
 H        -1.4794488613       -5.1299127890       -2.6135352406
 H        -2.7688343280       -4.3744697544       -1.5772646172
 H        -1.0155997827       -4.1538429081       -1.2690686088
 H         0.5496605573       -3.3676637613       -3.9614696026
 H        -0.7952882822       -4.3245991053       -4.6609254367
 H        -0.6587292041       -2.4604613920       -4.8910544637
 H        -0.5316346268        1.4860554452       -2.7358560279
 H        -1.9075101806        0.7986764031       -2.2379563136
 H        -2.5906667107        0.1849836863        2.7077424543
 H        -2.0816680462       -0.9176085620        1.5215833729
 H         0.2795240928        3.0531751711        1.1032175221
 H        -1.3495773131        3.7168155450        1.0121270432
 H        -0.4751341543        3.5908418579       -0.5271157027
 H        -3.0757260376        1.8576568702        1.0782528279
 H        -3.0432593094        1.9998179839       -0.7592653506
 H        -2.7717703289        0.3941178122        0.0118834431
 H        -1.7750474959       -1.7947685762        3.8556687058
 H        -1.0438567734       -0.3249864717        4.2922509347
 H         2.8861938443       -1.3839024146        3.7693332213
 H         3.9193423579       -2.6371743198        4.6827494799
 H        -0.1332781897       -1.5584622920        6.0376784178
 H         1.6830383331       -1.4926609015        5.9585381704
 H         0.8351242511       -2.8306613895        6.7409919804
 H        -0.3091698547       -4.2685333982        5.5587198613
 H        -1.4614461423       -3.6850406391        4.4584529263
 H        -0.1724727354       -4.7022455497        3.8565039381
 H         3.9720664923       -4.0600503378        2.5145022319
 H         3.6840598014       -2.6083646127        1.6105174319
 H         7.0505576418        1.0834254094        0.9545883947
 H         5.4943955580        1.8682032781        0.5591525464
 H         7.6779736051       -0.6541617174        2.3361588508
 H         8.2164230889       -0.8003699678        0.7302041254
 H         8.1721300244       -2.2491056572        1.7233654873
 H         4.9767473666       -3.0982500805       -0.0670134062
 H         6.2794637249       -2.0815734519       -0.8030267124
 H         6.6980889904       -3.4604256555        0.2050245343
 H         6.5332958273        2.4712343658        2.9466558207
 H         6.2463011382        0.8019653079        3.3643312779
 H         4.1197569870        5.6160987818        1.2837559196
 H         5.1362689128        4.4432302535        0.5454305747
 H         2.4650944316        2.3723959047        4.0620965328
 H         1.5865423256        3.6166710832        3.0268823367
 H         2.5395534548        4.2191068782        4.4634189747
 H         5.2362735740        4.2251625442        4.4221560742
 H         5.6832232770        4.4359461674        2.7172973292
 H         4.3736532595        5.4158083009        3.2672948867
 H         2.3466783421        4.7441775146       -0.7235284639
 H         3.4332826777        6.0110329081       -0.9812422971
 H         4.3088428266        1.5778161928       -2.5236971907
 H         2.7511295273        0.7644787256       -2.2527546571
 H         3.4767634588        0.9563253143       -3.8353429307
 H         3.1023697738        6.2784819619       -3.5285691013
 H         1.5932560316        5.5761947365       -2.9728857116
 H         2.0656926558        5.2246913035       -4.6212953697
 H         5.3838243152        3.6575467487       -3.8520557368
 H         4.1437571654        3.0304354519       -4.9967207811
 H         4.5448100181        4.8322751464       -4.8349211798
 Na        2.0199214133        0.4519750223        1.4264047789
