155

 C        -5.6255590072        1.2224219476       -2.2945964166
 C        -7.1553695559        1.6107964818       -2.0475783484
 C        -8.4055079193        0.7985036488       -2.8178652492
 C        -8.2193140177       -0.8137784212       -2.8035796002
 C        -8.6852531620       -1.6526401140       -1.6173112981
 C        -9.7261073634        1.3726596519       -2.2314129047
 C        -8.3037995760        1.3578659264       -4.2813470767
 O        -7.4751078200        2.4707777708       -1.2912759635
 O        -7.8001789397       -1.2359977260       -3.8356754784
 C        -7.9144224095       -3.0262482760       -1.6093226489
 C        -6.4075397469       -2.8804819095       -1.4520686297
 C        -5.6144266112       -4.1978320208       -1.5740203386
 C        -4.9342403055       -4.2549891671       -3.0544113431
 C        -4.3183628322       -3.0443260663       -3.7871668911
 O        -5.8248253055       -1.8358050936       -1.2285979675
 O        -5.0735862410       -5.3530726244       -3.6394316552
 C        -4.4587404338       -4.1185628981       -0.5477652836
 C        -6.4652348842       -5.5158111680       -1.2916934215
 C        -3.3448199414       -3.4305669737       -4.8501702679
 C        -1.8461077750       -2.9230049442       -4.6891945351
 C        -1.0239684314       -3.0558868936       -3.3313192625
 C        -1.3110252437       -1.7063202036       -2.4606800762
 C        -0.6298334047       -0.3946591322       -2.8253200411
 C        -1.3182970171       -4.2681479067       -2.4463329872
 C         0.5602999883       -3.0410525831       -3.5582637474
 O        -1.4053079067       -2.3612985797       -5.6513292242
 O        -1.9593600517       -1.8361507151       -1.3992998781
 C        -1.1877090993        0.7975647430       -2.0269031449
 C        -0.6170959088        0.7704825654       -0.6462577466
 C        -1.5108784679        1.3770426264        0.6050176304
 C        -0.8883549936        0.7872658025        1.9295694161
 C        -1.3856130150       -0.6154167059        2.3196897129
 O         0.5653833160        0.5351500878       -0.4497947810
 O         0.0518228947        1.3866373832        2.4600781972
 C        -1.0810565829        2.8408284304        0.5716059024
 C        -3.0678099689        1.1606877632        0.2443105913
 C        -0.6597723323       -1.3445318931        3.5495444025
 C         0.5343790287       -2.0956511333        3.1189633717
 C         0.7473749627       -3.4490548114        3.7690686189
 C         2.2489375374       -3.9619555118        3.3987003701
 C         3.4590365939       -3.2890401637        4.0203677315
 C         0.5769850954       -3.2737652696        5.3253624715
 C        -0.2699300122       -4.4460386096        3.1732980598
 O         1.4551412035       -1.6726932872        2.4028476604
 O         2.3797264806       -5.0495435251        2.9185087041
 C         4.7431548407       -3.3279314527        3.1472026204
 C         5.4873113137       -2.0193617255        3.2694561815
 C         6.2283363818       -1.4052870661        1.9411857474
 C         5.4924846510       -0.1039147783        1.4653773651
 C         6.1419108539        1.3392645652        1.7098212352
 O         5.5200697744       -1.3958936819        4.2808423767
 O         4.4962426544       -0.2011709983        0.8180265851
 C         7.7188222242       -1.2194427371        2.3742745062
 C         6.1305897532       -2.4026373084        0.7608027102
 C         5.7509571051        1.9843325816        3.0666253613
 C         4.2457978711        2.1140813312        3.2223285217
 C         3.6000624273        3.4760202780        3.3712279906
 C         3.1673552248        3.8446858132        1.8034059182
 C         3.8104343353        5.0852709182        1.1387018060
 C         2.3099767611        3.3785171521        4.2202981902
 C         4.5193577826        4.5810110203        4.0459387597
 O         3.5493215700        1.1153806373        3.1893607525
 O         2.3694704358        3.1373863561        1.2217951455
 C         3.1467387738        5.3969188486       -0.1960776595
 C         3.8362358881        4.5516394785       -1.2858281922
 C         3.1042881942        4.6287222366       -2.7378552271
 C         2.1135390680        3.2681114392       -2.6239157449
 C         2.8775661637        1.9917560844       -2.6062263897
 O         4.8090685867        3.8482916719       -1.1846585056
 O         0.9288712484        3.3077358780       -2.6264954688
 C         2.2265367897        5.9028337518       -2.9983968190
 C         4.2143896933        4.3905320685       -3.8601948571
 H        -5.3881370831        0.6432159738       -1.4222040875
 H        -5.4306611689        0.6619831250       -3.1283821214
 H        -5.0110851754        2.1260077321       -2.3860114136
 H        -8.4323073410       -1.0788439848       -0.6898582410
 H        -9.7695528627       -1.7586721181       -1.5100692731
 H        -9.7858035464        2.4082247920       -2.2823242570
 H        -9.9167028209        1.0293902967       -1.2794820063
 H       -10.5432135669        0.9407714689       -2.8074833887
 H        -7.3693271229        1.1772786358       -4.6372580916
 H        -8.9872315346        0.8394835536       -4.9605838178
 H        -8.4360241812        2.4591334090       -4.3465291091
 H        -8.3626963514       -3.6615831549       -0.9547210669
 H        -8.1776370999       -3.6116539937       -2.5337811396
 H        -5.1910417669       -2.4443396502       -4.0743369312
 H        -3.8134180027       -2.5482937379       -2.9300580378
 H        -3.8329484152       -5.0177893763       -0.4969832347
 H        -4.7835507299       -3.8746835117        0.4519924619
 H        -3.8397984175       -3.3056213128       -0.8561509949
 H        -7.4441479815       -5.5131470826       -1.7477536341
 H        -5.8329437896       -6.3757220627       -1.7313252001
 H        -6.4777288019       -5.5609138045       -0.1508054994
 H        -3.8082448295       -3.1606296910       -5.8297937894
 H        -3.1474228136       -4.5196831790       -4.8209950791
 H         0.4689244468       -0.4652988716       -2.6569589278
 H        -0.7083916907       -0.1948032064       -3.8775829989
 H        -1.4150336310       -5.1789660909       -2.9883297855
 H        -2.1851732736       -4.0837979452       -1.7237738671
 H        -0.4433621961       -4.4396949124       -1.8594347599
 H         1.0332597772       -2.6620377955       -2.6532489074
 H         0.9228069766       -4.0252118965       -3.7242846311
 H         0.7447509868       -2.3562417503       -4.4525299530
 H        -0.8209528042        1.7267670423       -2.4588342852
 H        -2.2708599205        0.6818843665       -2.0792418717
 H        -2.4746034591       -0.5688530198        2.5233750960
 H        -1.2870236231       -1.2363155718        1.4432318013
 H         0.0281506266        2.8583301837        0.7938318900
 H        -1.5344382621        3.3926058161        1.3179216402
 H        -1.3486485871        3.3036147633       -0.3783472019
 H        -3.6616020797        1.0279434692        1.2081292572
 H        -3.5093455577        2.0944245580       -0.1712725785
 H        -3.3112494381        0.3388563367       -0.4001657740
 H        -1.4004207400       -2.0331496669        4.0021829754
 H        -0.3582759596       -0.4983892105        4.2295891144
 H         3.3442957993       -2.2143686135        4.2020659952
 H         3.5880234237       -3.8486159436        4.8834137001
 H        -0.3866498246       -2.8329458556        5.5795453545
 H         1.4613011169       -3.0269908259        5.9323963591
 H         0.4101527996       -4.2941863535        5.7220577704
 H        -1.2121716697       -4.0026245637        2.7938186384
 H         0.0680872097       -5.1754575593        2.4313275831
 H        -0.5348883689       -5.2217755649        3.9262130713
 H         5.4451181131       -4.1065477454        3.3623565640
 H         4.3792919790       -3.3979664631        2.1016574250
 H         7.2808494616        1.2893014612        1.8036931628
 H         5.8868986033        1.9755225385        0.8786049672
 H         7.6994712560       -0.5760323382        3.2164528784
 H         8.4113777675       -0.9454258342        1.6155063088
 H         7.9715083619       -2.2753005963        2.6165785204
 H         5.1038232631       -2.6647780993        0.5349286259
 H         6.6862460102       -2.0498375008       -0.0665698173
 H         6.4966052592       -3.3588567765        1.0900671283
 H         6.2923656133        2.9118658160        3.1642810652
 H         6.1416067034        1.3120103475        3.7844744873
 H         3.5566581936        5.8709183749        1.8734345273
 H         4.9323840058        5.0872660112        1.1629491226
 H         1.7585954003        2.4585600788        4.0438791886
 H         1.5248316476        4.0984442559        4.0001792215
 H         2.4750291996        3.3201111295        5.2888279742
 H         4.9224744848        4.1646868265        4.9990949421
 H         5.2246059534        5.0934475309        3.4290278267
 H         3.7578596389        5.4217121484        4.1907336153
 H         2.0735132925        5.2470525580       -0.1540302773
 H         3.4712153676        6.3939695037       -0.5807723937
 H         2.9318542812        1.4885885063       -3.5012441137
 H         3.9212283107        2.1486429246       -2.2560992703
 H         2.3795983694        1.2816378026       -1.9386236378
 H         2.7966132754        6.7789997235       -2.9287824622
 H         1.4769170567        5.8298354882       -2.2465700009
 H         1.7053131768        5.7977730154       -4.0184789464
 H         5.0085733606        3.8734392226       -3.3485239311
 H         3.7125630069        3.9058320805       -4.7286477345
 H         4.4849856319        5.3860516262       -4.0788457621
 Na        2.2162639050        0.5515237176        1.5056674468
