155

 C        -6.7845254049        2.1287874471       -3.0731031117
 C        -7.9238163236        1.4536147137       -2.1895383606
 C        -9.0270147153        0.4997635451       -2.8766366485
 C        -8.2944667268       -0.8239625249       -3.1261636638
 C        -8.4274130342       -1.7215311540       -1.8704799665
 C       -10.2179247018        0.4402580549       -1.9226466335
 C        -9.3308243770        1.1633314045       -4.2390552790
 O        -7.8957611763        1.6565289858       -1.0016132232
 O        -7.5911420165       -0.9598727030       -4.0882489374
 C        -7.6734120611       -3.1242500628       -2.0795268607
 C        -6.2313525736       -3.0640267818       -1.6932421274
 C        -5.3466560008       -4.4148732488       -1.9784068599
 C        -4.6037045291       -4.2731402911       -3.4044244150
 C        -3.6367813321       -3.1733027169       -3.5533708241
 O        -5.7166364911       -2.1193961164       -1.1243447713
 O        -4.6868749031       -5.1954336183       -4.2056335788
 C        -4.2477209584       -4.3716883405       -0.9000655861
 C        -6.1806644787       -5.7181524737       -1.9474223350
 C        -2.7537524932       -3.2235213904       -4.7857783949
 C        -1.4112151055       -2.5101769797       -4.7432095363
 C        -0.2920562927       -2.8550254231       -3.5765377785
 C        -0.4950240877       -1.7542156040       -2.4594729806
 C         0.0636344100       -0.2805445244       -2.6159992779
 C        -0.4319361001       -4.3039398278       -3.0401263293
 C         1.0545402540       -2.7731084064       -4.2825122425
 O        -1.0080091734       -1.7947588965       -5.6359669787
 O        -1.2780453733       -1.9540437208       -1.6001901782
 C        -0.7892435612        0.8233041573       -1.8929567536
 C        -0.4028498778        0.9793053234       -0.4103833195
 C        -1.5719149659        1.0567330957        0.7517204029
 C        -0.8226877316        0.6195649438        2.0291861021
 C        -1.3829646006       -0.7289865654        2.6804737229
 O         0.7611172968        0.8907952201       -0.0709530582
 O         0.0935937533        1.2157040905        2.5360109331
 C        -2.1528466385        2.5492115766        1.0049977743
 C        -2.8401131396        0.2846916319        0.2996611415
 C        -0.5616995593       -1.3613325692        3.8154606584
 C         0.5681446902       -2.2227943816        3.1813831579
 C         0.7169077843       -3.7658726942        3.4880432182
 C         2.2680288135       -4.1452672536        3.1483806963
 C         3.6046734559       -3.4275706380        3.6775229836
 C         0.7112949980       -4.2087548386        4.9671282917
 C        -0.1372115394       -4.6133759589        2.5151326276
 O         1.5270198126       -1.7301305893        2.5865502810
 O         2.4606080245       -5.1182253289        2.4866817748
 C         4.5151224831       -3.0479782475        2.5814300540
 C         5.6078492365       -2.0962022057        3.0213205298
 C         6.2782082587       -1.0703292197        1.8869239956
 C         5.3106530895        0.0800326886        1.5292407748
 C         5.6700280758        1.5165850322        2.0389345519
 O         5.6930047778       -1.7605192850        4.1644572846
 O         4.3157036670       -0.0487294997        0.7916219467
 C         7.5952405208       -0.5448856301        2.3987270728
 C         6.5341050478       -1.8857789904        0.6209755813
 C         5.1772656516        1.7155762515        3.5397961818
 C         3.6535160385        1.9374032826        3.7658263170
 C         3.0062984576        3.3175316012        3.4885913874
 C         2.7431833032        3.7142969250        1.9400523484
 C         2.4305676980        5.0817835339        1.5463690285
 C         1.6512768295        3.4401886875        4.1857487234
 C         3.8458055334        4.4508350157        4.1641875235
 O         2.9560068624        0.9795454135        4.0895872076
 O         2.7826863312        2.8766810615        1.0720103355
 C         2.0328175052        5.2317961965        0.1380555497
 C         3.3711591957        5.0251998472       -0.7488809925
 C         3.2767530933        4.9242186350       -2.3221661290
 C         2.6017828426        3.5147158134       -2.6408235094
 C         3.3786031223        2.2627744074       -2.3182082100
 O         4.4160552699        4.9290106317       -0.1202286347
 O         1.4443360865        3.5168843929       -2.9283162622
 C         2.4302625565        6.0533757459       -2.9467726344
 C         4.7114165479        4.9216570295       -2.9178343978
 H        -6.9320143667        3.1979980207       -3.0998815825
 H        -5.8432047326        1.9736152027       -2.6531239493
 H        -6.7719927674        1.7795937289       -4.0669516603
 H        -7.9048353464       -1.2855120881       -1.0366376115
 H        -9.4866921081       -1.9899627674       -1.6626565793
 H       -10.7421575760        1.3315514214       -2.0993126664
 H        -9.8824493787        0.4255899584       -0.9512972125
 H       -10.9014148278       -0.3140871087       -2.2312373220
 H        -8.5798285977        0.8394256518       -4.9075566248
 H       -10.2763370244        0.9616320552       -4.7563398632
 H        -9.2506910985        2.2300680341       -4.0681763147
 H        -8.3284796270       -3.8529123536       -1.5349153375
 H        -7.7493115557       -3.5265292716       -3.0418048886
 H        -4.3620197518       -2.3210402376       -3.7099702360
 H        -3.0628236729       -2.8407909470       -2.7235952121
 H        -3.3986707354       -4.9338155269       -1.1406145417
 H        -4.6208112556       -4.6328720674        0.0533461404
 H        -3.9332712344       -3.3227770920       -0.7532283663
 H        -6.7011071489       -5.9125535367       -2.8822124740
 H        -5.5964261818       -6.6967125046       -1.7041214206
 H        -7.0972653804       -5.7081716233       -1.2488770747
 H        -3.1539513757       -2.7271690650       -5.6924203664
 H        -2.5090381013       -4.2352500462       -5.1655214966
 H         1.0210326896       -0.3056491804       -2.0853251220
 H         0.2206404705       -0.0333288642       -3.6519897729
 H        -0.4766801652       -5.0228566715       -3.8086304559
 H        -1.4143176268       -4.5285131238       -2.5087565485
 H         0.3463320846       -4.5946627718       -2.3603825278
 H         1.8437600511       -3.0860943001       -3.6013709609
 H         1.0696520286       -3.4721955741       -5.0879835293
 H         1.2283188476       -1.7000382517       -4.6020845243
 H        -0.4559684060        1.7068193856       -2.3913570643
 H        -1.8249014991        0.6256438071       -2.1630404044
 H        -2.3116232371       -0.4370665040        3.0880080175
 H        -1.7467013924       -1.4639341723        1.9959814985
 H        -1.5791273650        3.1459550940        1.7324760857
 H        -3.0898412921        2.3779736191        1.3890236304
 H        -2.2415194269        3.1135540894        0.0285093653
 H        -3.7087041207        0.3515907656        0.9897741494
 H        -3.2014432111        0.5907029479       -0.6927944705
 H        -2.7416574145       -0.7928019777        0.1194295251
 H        -1.2620327069       -2.0516406075        4.3408511734
 H        -0.2460281844       -0.5103396095        4.5119685001
 H         3.2777306812       -2.5840965903        4.2579070995
 H         4.1209551919       -3.9730692089        4.4048088020
 H        -0.3266208559       -4.0219738240        5.3803518303
 H         1.3160018389       -3.6134381992        5.5865588395
 H         0.9648898367       -5.3005431948        4.9060116409
 H        -1.1876712248       -4.5574302898        2.7131231651
 H        -0.0643862481       -4.4105200451        1.4297209735
 H        -0.0032740086       -5.6621255740        2.8665548597
 H         4.8071628106       -3.9456093474        2.0226868108
 H         3.9749324487       -2.4317933882        1.8203767908
 H         6.7593037858        1.6564249571        2.0243865054
 H         5.2345806476        2.2479901431        1.3357836862
 H         7.6183607760        0.0263498276        3.3433415815
 H         7.9924976039       -0.0322133927        1.5734136054
 H         8.1675684455       -1.4478460536        2.6516318601
 H         5.6269528259       -2.0497560288        0.0819141825
 H         7.1212107105       -1.2347117715       -0.0996934140
 H         7.1128116214       -2.7420153593        0.8075892264
 H         5.6222683720        2.6339290195        3.8600883852
 H         5.5483713533        0.9214920220        4.1587563586
 H         1.5505907242        5.3318348495        2.2064207901
 H         3.2589767136        5.7645925456        1.7833999288
 H         0.9463640511        2.6475593276        4.2222360890
 H         1.1469126621        4.3491847809        3.7888169202
 H         1.6992684993        3.6048456433        5.2365449023
 H         4.3522255963        4.1205287826        5.0822770432
 H         4.7244815833        4.7083933128        3.5814612552
 H         3.1275003431        5.3542459254        4.4219846470
 H         1.0258286092        4.7836515185       -0.0423238845
 H         1.8822570258        6.2952394097       -0.0608118514
 H         3.8470349628        2.5438942166       -1.4193580382
 H         2.7847788681        1.3377005627       -2.0878120421
 H         4.1255622603        1.9863119132       -3.0131967789
 H         2.9170468886        7.0345436710       -2.7990730510
 H         1.4130351169        5.9804281939       -2.5880675224
 H         2.3158965161        5.8532712910       -4.0735977563
 H         5.4529675783        4.4048877731       -2.2431596938
 H         4.5963904794        4.4423602242       -3.9058735990
 H         4.9218182776        5.9663511083       -3.0821430093
 Na        2.2875331827        0.7599563811        1.6773589867
