155

 C        -8.2651344482        2.9200258329       -2.7709670330
 C        -8.2241833492        1.4496016406       -2.4916371468
 C        -9.3074180606        0.4008903263       -3.1667481355
 C        -8.4895779848       -0.8369630275       -3.5590934369
 C        -7.8254957213       -1.6065730100       -2.3331165603
 C       -10.3898184270        0.0136607728       -2.0745726973
 C       -10.1212444453        1.0566811468       -4.2516433523
 O        -7.5226451752        1.0552413180       -1.5311607891
 O        -8.1886234953       -1.0716523700       -4.7155191784
 C        -7.0258765933       -2.8771614296       -2.7244529301
 C        -5.8416460838       -3.2387556391       -1.8517516492
 C        -5.1790037123       -4.6850992739       -2.0038518712
 C        -4.3227837610       -4.4084559118       -3.3879196983
 C        -2.9777148940       -3.5096275319       -3.2850008360
 O        -5.3132536157       -2.5467095132       -0.9949437979
 O        -4.7791026703       -4.8082318426       -4.3786452196
 C        -4.1556293367       -4.9668951427       -0.8210587978
 C        -6.1407136641       -5.9095312741       -2.2343342268
 C        -2.2417838969       -3.4054105741       -4.6251889390
 C        -1.2577621646       -2.2334708086       -4.6996519380
 C         0.2409277019       -2.3767376987       -3.9402638965
 C         0.1429519870       -1.3951957859       -2.7896687437
 C         0.2390119531        0.0890804151       -2.9460609184
 C         0.4371327044       -3.7532098846       -3.3585174555
 C         1.5272144859       -2.1148418267       -4.8616601916
 O        -1.4552013103       -1.1990515581       -5.3160396395
 O        -0.1629134228       -1.8700764467       -1.6838595142
 C        -0.6180244670        0.7560204470       -1.8569878939
 C        -0.4759967152        0.4776354602       -0.4659659290
 C        -1.7001394010        0.7855299877        0.5282032995
 C        -1.1468327259        0.3384931664        1.8202953619
 C        -1.1972442295       -1.2201266253        2.0658338781
 O         0.5077551422       -0.0889950668        0.0707314833
 O        -0.4788509351        1.0823971607        2.4781349697
 C        -1.8959370568        2.2939358322        0.4340982277
 C        -2.9507427757        0.1286414042       -0.0621876097
 C        -0.4499972475       -1.9165524411        3.2747814040
 C         0.8346495240       -2.5910147305        2.8688496774
 C         1.1743683560       -3.9874083050        3.4414678454
 C         2.5058037138       -4.4922554454        2.6697861725
 C         3.7641268989       -3.8261901309        3.3186962899
 C         1.1805767160       -4.0371079848        5.0442645969
 C         0.2310985792       -5.1712682690        3.0761231916
 O         1.6366861556       -1.9370230111        2.2634017412
 O         2.4243964646       -5.2695521392        1.7251566493
 C         4.4208381550       -2.8829174287        2.2998759325
 C         5.5404983029       -1.9562389751        2.8795878741
 C         6.1904228237       -0.7371550848        1.9510129274
 C         5.1197667228        0.4721889387        1.8903339251
 C         5.4934144287        1.8343948341        2.4141818463
 O         5.9471190944       -2.1154708790        4.0218581625
 O         4.0954092203        0.3488071613        1.2593181968
 C         7.6162186442       -0.3161291854        2.3839612840
 C         6.2152095701       -1.1068868669        0.4598970827
 C         4.9969175408        2.0168899990        3.8647318433
 C         3.4263848031        2.1815991855        3.8342876379
 C         2.6407925339        3.5164709672        3.9064079710
 C         2.2836782802        3.9186912010        2.3164081864
 C         2.1347838197        5.4692876216        2.0066115572
 C         1.3056265208        3.3681880621        4.5963390768
 C         3.3523574989        4.5949985765        4.7110028671
 O         2.8625054540        1.0923477244        3.9580751142
 O         1.8613165117        3.1156358701        1.5081698300
 C         1.9984028311        5.7660103565        0.4252131244
 C         3.2644424754        5.4028562769       -0.2396856929
 C         3.2444004436        4.9767208224       -1.7811094121
 C         2.7597278731        3.3682930009       -1.8821497604
 C         3.8662980110        2.2536197507       -1.9047852466
 O         4.3092110768        5.3131120584        0.4228432515
 O         1.5841442532        3.0567320403       -1.8498395237
 C         2.2727581380        5.9565336426       -2.5902473436
 C         4.7447665538        5.0832572438       -2.2505924029
 H        -9.0767979204        3.2594400604       -2.2513787913
 H        -7.3421255061        3.3870569554       -2.4356365747
 H        -8.3309436955        3.0622902164       -3.8652161187
 H        -7.2293464345       -1.0414652886       -1.6080215132
 H        -8.6612811623       -2.0164444795       -1.6481964159
 H       -11.0168220734        0.9147735564       -2.0307127030
 H        -9.8068868495       -0.2275000396       -1.1197893879
 H       -10.8666700619       -0.9886492773       -2.3511788834
 H        -9.4814888077        1.5528823572       -5.0323388245
 H       -10.8547995692        0.4398939565       -4.6614263766
 H       -10.6021978906        1.8538291243       -3.7788220491
 H        -7.7439039756       -3.6674432831       -2.6958438249
 H        -6.5707963497       -2.8194900512       -3.6728779313
 H        -3.4174573680       -2.5237911437       -2.9758333900
 H        -2.4672984007       -3.8527554737       -2.4350529005
 H        -3.3671350159       -5.7420040135       -1.1504704094
 H        -4.5347829034       -5.4257264740        0.1405139979
 H        -3.6254116871       -4.0809228674       -0.6571744646
 H        -6.8075856752       -5.8290763642       -3.0763569555
 H        -5.7518929708       -6.8357080357       -2.3723744065
 H        -6.7965574558       -6.0717156990       -1.4872841542
 H        -3.0955588731       -3.3332300677       -5.3539934557
 H        -1.7546021415       -4.4052557521       -4.7897792313
 H         1.3390677328        0.3239563685       -2.9234367196
 H        -0.0893927197        0.2450378253       -3.9607321014
 H         0.4420383034       -4.5683247768       -4.1566410316
 H        -0.1881601986       -4.0373578250       -2.5888449629
 H         1.4717616025       -3.8667625035       -2.9264209824
 H         2.3777171838       -1.9898207026       -4.2726619594
 H         1.6787645486       -2.9453602489       -5.6149280933
 H         1.3770307843       -1.2453883944       -5.4172952703
 H        -0.7080511452        1.8559710272       -2.0260511902
 H        -1.6589069232        0.5273324709       -2.1994109623
 H        -2.2844626093       -1.5090116632        2.2827305231
 H        -0.7300996356       -1.6149590884        1.1331605732
 H        -0.9604108569        2.7783956982        0.8687403372
 H        -2.7972097579        2.5964251077        0.9467913246
 H        -2.0226170361        2.5608570677       -0.5656399071
 H        -3.6856704575       -0.0790825666        0.7066330304
 H        -3.5667207748        0.5036264749       -0.8686967967
 H        -2.7554598757       -0.8599615970       -0.2950479143
 H        -1.0813676957       -2.5841420900        3.7914137095
 H        -0.1909852091       -1.1377534655        3.9803579867
 H         3.3249194191       -3.2220442152        4.1614446497
 H         4.4055477386       -4.5406463776        3.7389837865
 H         0.1211672568       -4.1140174069        5.1982252010
 H         1.7941311533       -3.2693948257        5.5661740461
 H         1.5247719897       -5.0197180990        5.2807905791
 H        -0.7911954158       -4.8426567581        3.2715369828
 H         0.3007484425       -5.6283103159        2.1337589851
 H         0.4645093400       -6.0068236488        3.7061444563
 H         4.8093151399       -3.3901924441        1.4292981490
 H         3.6527243783       -2.1972827918        1.8342639144
 H         6.6100049248        2.0238192145        2.3054194372
 H         5.0115804003        2.5489251913        1.7313918303
 H         7.6661314377        0.1547186175        3.3419802774
 H         8.1333165613        0.3115359758        1.6738604639
 H         8.2307317943       -1.2849856984        2.3409679481
 H         5.1626158346       -1.2985292085        0.1458312879
 H         6.5881064539       -0.1947950693       -0.0047272370
 H         6.7916021102       -1.9673785879        0.1299111894
 H         5.6051811567        2.8084480463        4.3647834859
 H         5.1133411371        1.0877855474        4.4455439159
 H         1.2093898564        5.7261999104        2.5834700099
 H         3.0801731467        5.9806366077        2.3343466853
 H         1.3891420335        3.5404576457        5.6950132115
 H         1.0155359974        2.4054346975        4.4459793761
 H         0.3906481279        3.8968224605        4.2317048600
 H         3.2853412269        4.3816470914        5.8007613882
 H         4.2756474121        4.8973009737        4.2721669411
 H         2.8131962527        5.4644962571        4.6692216979
 H         1.1715715383        5.1230422969        0.0807051528
 H         1.5704543282        6.6999010455        0.0729085426
 H         4.3883136580        2.1117404266       -0.9752101265
 H         3.3278843480        1.3120664500       -2.0021740614
 H         4.6039433699        2.4369559613       -2.7465774872
 H         2.3190135197        7.0261373444       -2.5344432209
 H         1.2817924516        5.6759061044       -2.3247015426
 H         2.3361063947        5.7167247294       -3.5542479680
 H         5.3782734244        4.6307549629       -1.4967086523
 H         4.9869983920        4.5741939562       -3.2503747117
 H         5.0630509722        6.0910998798       -2.3495273822
 Na        1.7008257035        0.6705745809        1.7785253571
