155

 C       -10.0751216205        2.4321216437       -2.7453938860
 C        -8.8268064141        1.4818397175       -2.8318527863
 C        -9.2594823416       -0.1086749509       -3.0120595196
 C        -8.0989269470       -0.9846424205       -3.6494224600
 C        -7.0036925658       -1.5100217928       -2.6632036153
 C        -9.7471830253       -0.5988012101       -1.6456259978
 C       -10.4991635670       -0.1244694614       -3.9294702902
 O        -7.7007675595        1.8704065169       -2.7135517672
 O        -8.0320200428       -1.1823734058       -4.8328154440
 C        -6.1740657463       -2.5667401466       -3.2769498437
 C        -5.1294681789       -3.1212653894       -2.3429481159
 C        -4.8181571593       -4.6457629945       -2.5756134547
 C        -3.9483625736       -4.5393665082       -3.8706555664
 C        -2.5711942614       -3.8309617460       -3.6976388401
 O        -4.5807340689       -2.4749102697       -1.4971219058
 O        -4.2389113019       -4.9358451405       -4.9819975422
 C        -4.1051061490       -5.2018344802       -1.2605485096
 C        -6.0579118824       -5.4921728629       -2.9356289851
 C        -1.8939528444       -3.8139870758       -5.0588612195
 C        -1.1254224669       -2.4611210694       -5.1705275080
 C         0.2871039669       -2.2241879834       -4.3790799990
 C        -0.0138688777       -1.3292744169       -3.1484740425
 C         0.3586531961        0.1632445605       -3.2461877656
 C         0.9050722192       -3.6022279767       -3.9017748236
 C         1.2593338144       -1.5305315541       -5.4076437743
 O        -1.5511282555       -1.5955079491       -5.9071882939
 O        -0.5084702023       -1.7371465306       -2.0981734080
 C        -0.3291953964        0.9538033317       -2.1698213235
 C        -0.3166815508        0.2100960587       -0.7452904759
 C        -1.6383610694        0.1527150845        0.1441004536
 C        -1.4110285923       -0.5781949803        1.5002750734
 C        -1.3636692795       -2.1181100843        1.3973741976
 O         0.7584668782        0.0418119051       -0.1535048752
 O        -1.1759304883       -0.0066319752        2.5183173803
 C        -2.0069844579        1.5791352721        0.5552823707
 C        -2.7722668457       -0.4711892609       -0.6306927066
 C        -0.8790446777       -2.6163046641        2.7684697050
 C         0.6862339133       -2.5372606343        2.8677837795
 C         1.5343893520       -3.8743190087        3.0375906051
 C         2.9171096594       -3.6622958759        2.4955091393
 C         3.9956689424       -3.0340229995        3.3194181094
 C         1.6868589121       -4.4598599964        4.4578028301
 C         0.8424136155       -4.9952073673        2.2130027697
 O         1.2983045599       -1.4571302415        2.8795315320
 O         3.1052048792       -4.1756019955        1.4041436390
 C         4.6835302301       -2.1605008400        2.2179609461
 C         5.7633390800       -1.1432855427        2.7311020330
 C         6.1836419681        0.0373721973        1.7173126197
 C         4.9075923226        0.9531141364        2.1277146844
 C         5.1336429192        2.1741437916        3.0993106949
 O         6.3760120843       -1.3035591009        3.7894730807
 O         3.8339580676        0.6254466669        1.6917814487
 C         7.5093289560        0.6476013225        2.0325724213
 C         6.3345554891       -0.4835731362        0.2081711261
 C         4.5443031999        2.0837965261        4.5103406385
 C         3.0574075392        2.0035093151        4.6800987404
 C         2.1475668737        3.2641366607        4.8656379265
 C         2.0518070876        3.7851745541        3.3798297929
 C         2.3835926284        5.3043405885        3.0032106449
 C         0.7547386259        2.7150323963        5.3009189881
 C         2.5367803811        4.3761022363        5.8929586456
 O         2.5995138548        0.8956012628        4.5499311655
 O         1.6752450408        3.0598828413        2.4711351883
 C         2.2154659745        5.5590129316        1.5116557722
 C         3.3645912528        4.8977145719        0.6110888146
 C         3.1867940258        4.9536084672       -0.8708900671
 C         2.5109542126        3.5932388473       -1.3969930672
 C         3.0993329693        2.3581109770       -0.9059008076
 O         4.3424116273        4.4465206261        1.1251701723
 O         1.5257117849        3.6850684169       -2.1315940310
 C         2.1390815247        6.1100084815       -1.2274393435
 C         4.4761932554        5.1747008956       -1.6098803981
 H       -10.9282410281        1.8311407703       -2.2294401406
 H        -9.7008340710        3.3886938124       -2.1770181845
 H       -10.3374035255        2.6985885733       -3.7237425410
 H        -6.3522755087       -0.7692660155       -2.2148089612
 H        -7.5733153989       -1.9488676603       -1.8656515867
 H       -10.8134687651       -0.3295304572       -1.4530254321
 H        -9.1588212109       -0.1674954859       -0.8752777506
 H        -9.7055360804       -1.6805575698       -1.5311951517
 H       -10.3761227721        0.5504535025       -4.8517336110
 H       -10.5691629512       -1.1214670898       -4.4249162058
 H       -11.4478499164        0.0603957353       -3.5140045582
 H        -6.7287582983       -3.2187636898       -3.9199825268
 H        -5.4399760718       -2.1414326126       -4.0866774937
 H        -2.8200854033       -2.8038764865       -3.2938673554
 H        -1.8970439912       -4.3717868590       -3.0159492372
 H        -3.5421284651       -6.0845021014       -1.4296077420
 H        -4.8335941275       -5.4122394803       -0.5107869308
 H        -3.3166295445       -4.4343250874       -0.9588063231
 H        -6.5858544696       -5.2945216925       -3.8785799389
 H        -5.7945318915       -6.6128225419       -3.0997483054
 H        -6.9658825112       -5.3882315691       -2.2113334286
 H        -2.6775599594       -3.7646751926       -5.7737484487
 H        -1.3613856833       -4.7348921209       -5.3226899561
 H         1.4544365549        0.1320094915       -3.0063584370
 H         0.2346577317        0.4647642365       -4.2260990250
 H         0.9967510762       -4.1858662465       -4.7826652879
 H         0.2094547088       -4.0221793534       -3.1215197588
 H         1.8817894196       -3.5309260718       -3.5237436667
 H         1.8459984701       -0.7208961780       -4.9947280566
 H         1.8679836393       -2.2097213863       -5.9664875214
 H         0.6335068519       -1.0178297829       -6.1762296818
 H         0.2155465052        1.8727442477       -2.0795103657
 H        -1.3612305177        1.0085873271       -2.4684916053
 H        -2.2845243376       -2.4175472991        0.9645835272
 H        -0.7205588947       -2.3876263947        0.5996215207
 H        -1.2289162509        1.9693532962        1.1158848321
 H        -2.9169044667        1.6286070957        1.2095856530
 H        -2.0962559794        2.0604841950       -0.4325621002
 H        -3.3558642926       -1.0572509026        0.1005597117
 H        -3.3577974890        0.2501652615       -1.1964358750
 H        -2.3785184406       -1.1579037737       -1.4490288784
 H        -1.2276387853       -3.6409835871        3.0817901292
 H        -1.0692978892       -1.8246033133        3.5571160886
 H         3.6574036236       -2.5523839488        4.2156410756
 H         4.7428006799       -3.8785589356        3.7163980385
 H         0.7893846752       -4.3415825885        5.0119376939
 H         2.4989984333       -3.8802923545        4.8420126169
 H         2.0201475554       -5.4803230256        4.4955617561
 H         0.0793639761       -5.4352610180        2.9115462054
 H         0.2619088772       -4.5346469543        1.3967757386
 H         1.5814498185       -5.6724574713        1.8284622927
 H         5.2493365744       -2.7877077146        1.5852897975
 H         3.9410105925       -1.5105652445        1.7255456993
 H         6.2122746712        2.2980645866        3.2522748962
 H         4.8691532122        3.0445900516        2.5792653259
 H         7.6257352207        0.8971511912        3.0795821951
 H         7.6233448434        1.6217013070        1.4705501903
 H         8.3677347194        0.1857099602        1.6284753374
 H         5.4147569041       -0.6327495169       -0.3862153462
 H         6.9929741046        0.2244702555       -0.2046461210
 H         6.8916193680       -1.4765153571        0.1069409700
 H         4.9734960030        2.9572363044        5.0078766413
 H         5.0801899093        1.2767296635        4.9358738242
 H         1.6676488332        5.8806229739        3.5923994834
 H         3.3420317473        5.7657392233        3.2994110301
 H         0.9465742437        2.0047650402        6.1004302543
 H         0.2433147389        2.1929770678        4.4377162091
 H         0.2468052340        3.5640560993        5.5015147054
 H         2.4453463415        3.9265789856        6.8379378839
 H         3.6229099934        4.6020914435        5.7436591747
 H         1.8953381774        5.3170240585        5.6417992489
 H         1.1720114284        5.2889870927        1.3085817804
 H         2.3340580495        6.6416811581        1.2724363631
 H         3.0842945098        1.5657992081       -1.7036585900
 H         4.0609444933        2.4530463402       -0.4427307351
 H         2.4171708473        1.8988782932       -0.2169878853
 H         2.6460859614        7.1587735094       -1.0846932846
 H         1.1349385606        5.9702352994       -0.6874386269
 H         1.8757186513        6.2233267622       -2.2975293498
 H         5.3473469447        4.6824926807       -1.1803000511
 H         4.5216617745        4.9628959088       -2.6606400900
 H         4.8044508618        6.2577762580       -1.5323350992
 Na        1.2030852015        0.8785395089        1.9312576658
