155

 C        -9.9373972855        2.1614107095       -3.3847832482
 C        -9.0268177244        0.9737323305       -2.9612165976
 C        -9.6088125461       -0.5073381758       -3.0079980080
 C        -8.6674149885       -1.7747822757       -3.6739893187
 C        -7.1620039987       -1.8353303171       -3.2183787113
 C        -9.8328215298       -0.9466951644       -1.4861483122
 C       -10.9390301872       -0.5984657173       -3.8753129820
 O        -7.9208750158        1.1755522411       -2.6254502003
 O        -9.1195254921       -2.4605444162       -4.5662303469
 C        -6.3042160468       -2.8468071185       -3.9572436937
 C        -5.2052693917       -3.3030291312       -2.9887391845
 C        -4.3993476888       -4.6759818497       -3.3181292804
 C        -3.5265345564       -4.2579117311       -4.5626061071
 C        -2.3678804154       -3.1500090509       -4.2645246628
 O        -4.9435797252       -2.6784696660       -1.9811522565
 O        -3.6952089285       -4.7815481020       -5.6271699260
 C        -3.5693533570       -5.0757599381       -2.0651924071
 C        -5.2764395861       -5.8561005678       -3.7876674646
 C        -1.3224548914       -3.1283793711       -5.3987568766
 C        -0.1001109071       -2.1585990699       -5.2220328686
 C         0.9459762512       -2.3913441837       -4.0021682388
 C         0.3753973210       -1.4045476975       -2.9348426666
 C         0.4556329630        0.1233772967       -3.2481846921
 C         0.9077305588       -3.7665845193       -3.2993366190
 C         2.3717240558       -2.0482560397       -4.4866977162
 O         0.0361925423       -1.1398334476       -5.8403440448
 O        -0.1698252432       -1.7843668747       -1.9401375707
 C        -0.4569386788        0.9489870346       -2.2978125962
 C        -0.2754752433        0.6379808170       -0.8121855575
 C        -1.4853542741        0.3415580289        0.1343555909
 C        -1.0970787782       -0.6390871611        1.2804105981
 C        -1.0606985423       -2.1065392637        0.9490336800
 O         0.8392243890        0.8210292299       -0.3123848131
 O        -1.0206420207       -0.3046394985        2.4586551212
 C        -1.8206701569        1.7284262134        0.7696071858
 C        -2.7914989755       -0.1613880788       -0.4937424457
 C        -0.1081642984       -2.8354075657        1.9302373735
 C         1.3527626861       -2.7033404157        1.7895099738
 C         2.0983117010       -4.1044408287        2.1023076472
 C         3.6109101576       -3.7353846939        1.8260357439
 C         4.4688135162       -2.8639586634        2.8521938903
 C         1.9161949324       -4.4873973781        3.5677774723
 C         1.6469871069       -5.1922772570        1.0339348241
 O         1.9805709526       -1.7056829059        1.4925811268
 O         4.2587814077       -4.2513515129        0.9431319737
 C         5.5220318274       -2.1219508157        2.1287913547
 C         5.8444158146       -0.8540717029        2.9241627115
 C         5.9568272379        0.6425572479        2.2242999265
 C         4.6443003475        1.3437978183        2.6967357076
 C         4.6008270335        2.1537203285        4.0041862749
 O         6.0039566810       -0.9260978471        4.1409510783
 O         3.6689234233        1.3473533928        1.9700454748
 C         7.1445082147        1.3814321755        2.7756503172
 C         5.9607757509        0.5914207078        0.6988510441
 C         3.7021952319        1.5023235163        5.0617530136
 C         2.2505530039        1.2311308167        4.5920640291
 C         1.2690162921        2.3598876862        5.0481882589
 C         1.2048690607        3.3399040784        3.6750630126
 C         1.5405484931        4.7928658032        3.7757000983
 C        -0.1155581382        1.6161008154        5.1258919542
 C         1.6325431172        3.2135067217        6.1834358673
 O         1.9630667520        0.1531426415        4.0735537352
 O         0.8901523827        2.7679955530        2.6461814852
 C         1.3637481554        5.5227645084        2.4102987735
 C         2.7496529128        5.4761293113        1.6409731361
 C         2.8531380915        5.7948748946        0.2088237533
 C         2.0998052117        4.5411549718       -0.6432476078
 C         2.7463302938        3.9918593366       -1.8634524755
 O         3.7436881025        5.1212354199        2.2496920098
 O         1.1422091286        4.0811818280       -0.1450375905
 C         2.0310760517        7.0873286583       -0.1985766610
 C         4.3156338377        6.0107406349       -0.2074340884
 H       -10.7435950094        2.3152758541       -2.6385951198
 H        -9.2063251022        2.9592201126       -3.2580742695
 H       -10.1543505401        2.1172480871       -4.3487164620
 H        -6.7739231366       -0.7988576489       -3.1956540653
 H        -7.1500198123       -2.0698678245       -2.1269340013
 H       -10.1731461083       -0.1135882449       -0.8762444147
 H        -8.9898766945       -1.3456122442       -0.9573336060
 H       -10.5517954088       -1.6887900842       -1.3835807976
 H       -10.6797189279       -0.1589932680       -4.8928677747
 H       -11.3268051313       -1.6762541720       -3.9100002208
 H       -11.7683258477        0.0624006035       -3.5046664786
 H        -6.8821714235       -3.7101735880       -4.1762180999
 H        -5.8532330275       -2.4597977877       -4.9173957597
 H        -2.9425918924       -2.2648845837       -4.1319749444
 H        -1.8797638672       -3.5386397698       -3.4000410304
 H        -2.6208464326       -5.5351873276       -2.3989792830
 H        -4.1557175237       -5.8422870084       -1.5356369424
 H        -3.3460668746       -4.2140908986       -1.5721009710
 H        -5.5991389566       -6.4828484785       -2.9045065287
 H        -6.1278654990       -5.4528458046       -4.2855719307
 H        -4.7648631620       -6.6002098888       -4.4347243980
 H        -1.7581610325       -3.0083031048       -6.3634321048
 H        -0.8378166514       -4.1167181045       -5.4048116427
 H         1.5173514335        0.4253245531       -3.2388287326
 H         0.0627010514        0.3091209995       -4.2358432077
 H         0.7710284856       -4.5781282414       -4.0185408498
 H         0.2169856621       -3.7161750616       -2.5628365917
 H         1.8738222826       -3.9565827020       -2.8141829161
 H         2.9926312240       -1.5288017551       -3.6430120951
 H         2.7789072086       -2.9734880438       -4.7956905948
 H         2.4431341924       -1.3187615959       -5.3454188115
 H        -0.3347041649        2.0386408244       -2.5515360574
 H        -1.4830204534        0.6879179915       -2.6811496204
 H        -2.0354497472       -2.5486482261        1.3349670727
 H        -0.9356708649       -2.3686805295       -0.1590882757
 H        -0.9296335227        2.1003913658        1.3940806284
 H        -2.6025873526        1.6002363009        1.4707102878
 H        -2.0448547611        2.4227170674       -0.0280073807
 H        -3.5104700695       -0.5860335332        0.2838832396
 H        -3.1424853349        0.6944084834       -1.1730151689
 H        -2.5679819084       -0.9183533812       -1.2715589168
 H        -0.3637463026       -3.8744094257        2.0865998609
 H        -0.3374942533       -2.4689800930        2.9034487894
 H         3.7582968446       -2.1577120120        3.3546846036
 H         4.7756788218       -3.5714295344        3.5467597594
 H         0.9647992085       -4.8755376925        3.7791132632
 H         2.2870487408       -3.7896172182        4.3327761436
 H         2.4807443698       -5.3376909836        3.8005532284
 H         0.5857370050       -5.2041919055        0.9689283326
 H         2.0363734630       -4.7453130818        0.1039519251
 H         2.1649855770       -6.1852403817        1.1291119154
 H         6.4563420170       -2.6505102104        2.1048736675
 H         5.2596360946       -2.0204703522        1.0386579718
 H         5.5810861199        2.3111917964        4.3644787421
 H         4.2235328913        3.1424377050        3.6960309440
 H         7.2176626411        1.3183973137        3.8690464161
 H         7.1237482552        2.3936622786        2.4859166267
 H         8.0537455534        1.0884097834        2.1931040038
 H         4.9607937149        0.3860851831        0.3249142746
 H         6.4228992409        1.5309883756        0.2298707416
 H         6.6379643679       -0.1905351942        0.4475330107
 H         3.7777739853        2.1354506775        5.9616606434
 H         4.1830389435        0.5461870106        5.3246150603
 H         1.0298780406        5.2915388070        4.5762753687
 H         2.5917803377        4.7479011371        4.0724595944
 H        -0.0465666745        0.9175851228        5.9527899365
 H        -0.3371092978        1.1242945447        4.1713880419
 H        -0.8551587066        2.4306522645        5.2658992385
 H         1.9822023278        2.6460262772        7.1149946507
 H         2.4830150396        3.8552445521        6.0051886778
 H         0.8647765752        3.8478115159        6.4775575356
 H         0.6622249322        5.0039173294        1.7690258189
 H         1.2156897908        6.5939650079        2.4624930707
 H         3.6763507512        4.4219768273       -2.1259714778
 H         2.8133712604        2.9206853041       -1.6038522563
 H         2.1570022313        4.0881502590       -2.7964322788
 H         2.7790477222        7.8873771490       -0.0135618112
 H         1.1039997187        7.1864378672        0.3708788580
 H         1.8628417776        7.1004014542       -1.2854583030
 H         4.8854475010        5.0624115872       -0.0639923645
 H         4.4557275247        6.3542801562       -1.2619755246
 H         4.8654023043        6.7123914588        0.3962439955
 Na        1.3851199424        0.5789645741        1.6264565468
