155

 C        -9.3556630921        1.4026506983       -4.3715886803
 C        -8.8586384979        0.4494027436       -3.1663007489
 C        -9.6648537648       -0.9351312962       -2.9678028493
 C        -8.6833925379       -2.1040158125       -3.3196679575
 C        -7.3183356726       -2.2435610313       -2.5736323663
 C       -10.0806853661       -0.8656995027       -1.4822567472
 C       -10.9609224673       -0.9430256421       -3.8643273018
 O        -7.9831735538        0.7540005694       -2.4520497598
 O        -8.8628561983       -2.8070424783       -4.2919100426
 C        -6.5514842643       -3.5101838624       -3.2025479100
 C        -5.0774900143       -3.2403426929       -3.5527874239
 C        -4.1901068126       -4.4798708179       -3.9671663360
 C        -3.2828560101       -4.0216885479       -5.1719766517
 C        -2.2753675496       -2.9129296751       -5.1052061482
 O        -4.4777270792       -2.1581643043       -3.5707254544
 O        -3.5252699466       -4.5156297358       -6.2567677796
 C        -3.3470904088       -4.9487844641       -2.7859828777
 C        -4.9878599804       -5.7816750024       -4.5274793719
 C        -0.9100561424       -3.5339417967       -5.4801190124
 C         0.1471282411       -2.3932464417       -5.4757796808
 C         1.2782069398       -2.2184713110       -4.2803252409
 C         0.5313585181       -1.3816566035       -3.2323910173
 C         0.5973297724        0.1334789075       -3.2396850656
 C         1.7268464963       -3.5911369728       -3.6831416677
 C         2.4399413414       -1.5350429835       -4.9833971485
 O         0.1993312115       -1.6534210800       -6.4236241875
 O        -0.1211693212       -1.8967913000       -2.3452961900
 C        -0.5532498111        0.7661333799       -2.3995712128
 C        -0.4543834866        0.4197027372       -0.8723756631
 C        -1.7744663195        0.1224341762        0.0645958915
 C        -1.2880025188       -0.9252313777        1.1564077451
 C        -1.0339709569       -2.3414663049        0.7100055900
 O         0.5897993731        0.6009051783       -0.2688616978
 O        -0.9360560961       -0.4914759596        2.2355994845
 C        -1.9060639713        1.6166711313        0.6490136731
 C        -2.9625607343       -0.3355687866       -0.7564117217
 C        -0.1002545108       -3.0556843515        1.8460734998
 C         1.4052926386       -2.6609361807        1.9318842665
 C         2.4865466238       -3.7593849789        1.5309525863
 C         3.8278008028       -3.1042304391        1.5268890356
 C         4.3499159748       -2.6061199008        2.8632589904
 C         2.4819435777       -4.9363270281        2.5201347071
 C         1.9480649925       -4.2713168664        0.1331585056
 O         1.8091448149       -1.6088776115        2.3718391557
 O         4.4389689623       -2.8185419677        0.5218902432
 C         5.9557847639       -2.3765455785        2.8230869537
 C         6.2768847218       -0.9672934768        3.3415091276
 C         6.1445431946        0.4259390000        2.4762695073
 C         4.6738972537        1.0409289229        2.5750682163
 C         4.2665279272        2.1374664255        3.5928762968
 O         6.6183933273       -0.8575242628        4.5456841363
 O         3.8308854646        0.5291463144        1.8839480282
 C         7.2352496490        1.3148588322        3.0867866403
 C         6.5902078873        0.1951036969        1.0090219448
 C         3.6036167156        1.6086410234        4.8524605676
 C         2.1434286883        1.1228317061        4.7888653236
 C         1.0241641051        2.1679476328        5.2397786236
 C         0.7424678170        3.1129833493        3.9741062844
 C         0.3973444699        4.5706978925        4.1345959771
 C        -0.2171188154        1.3234138538        5.5941135191
 C         1.4919120778        2.9805120293        6.4852436869
 O         1.9379720537        0.0050902340        4.3532366286
 O         0.5165906987        2.5857679020        2.9075941326
 C         0.6129500528        5.4460971278        2.8439594255
 C         2.1267619225        5.6565776162        2.5146883547
 C         2.4725579590        6.2350913203        1.0912542105
 C         1.7958327954        5.3360852367        0.0215825012
 C         2.1956675735        5.4430217295       -1.4608015432
 O         2.9559214819        5.5005962097        3.4063750113
 O         0.8995284791        4.6153698511        0.2623446777
 C         1.9004639792        7.7121016798        1.0542373457
 C         4.0320733496        6.2148893465        1.0066459786
 H       -10.3819778171        1.6667577200       -4.1383551988
 H        -8.7069044997        2.2751370175       -4.3074084979
 H        -9.3640229260        0.9036637424       -5.2446322689
 H        -6.7465447059       -1.3168152978       -2.8612061128
 H        -7.4902868931       -2.3443859284       -1.5039228218
 H       -10.7337925431        0.0252284934       -1.3764780708
 H        -9.1942463031       -0.7479943927       -0.8257271705
 H       -10.6285644343       -1.7123315595       -1.1213821871
 H       -10.5432016895       -0.7270384991       -4.9101093483
 H       -11.2476177134       -2.0082086599       -3.9565917072
 H       -11.7488868336       -0.3401845065       -3.4549084936
 H        -6.5371536077       -4.3334011275       -2.4536383680
 H        -7.1097330994       -3.9181225790       -4.0208462557
 H        -2.5725688073       -2.1312699936       -5.7768557376
 H        -2.2680748134       -2.3793642989       -4.1815617949
 H        -2.9738224009       -5.9390950034       -3.1106187367
 H        -3.9854138960       -5.1111159922       -1.8816200657
 H        -2.6234994316       -4.2006746602       -2.4838770837
 H        -5.5100964424       -6.2587915739       -3.6566753397
 H        -5.6746677928       -5.4542651191       -5.2537116111
 H        -4.2165407804       -6.3022755440       -5.0404629859
 H        -0.9285010803       -3.9496981594       -6.4698771276
 H        -0.7178607144       -4.3319673281       -4.7484886831
 H         1.5674242905        0.5101261404       -2.7355857379
 H         0.6502640998        0.5878946480       -4.2198060795
 H         2.3704270777       -4.1277772195       -4.4123267880
 H         1.0626032033       -4.2988193941       -3.3753698470
 H         2.3952019197       -3.3111042203       -2.8852523060
 H         3.3496569264       -1.5191027857       -4.2676484749
 H         2.8166891429       -2.0161669161       -5.8355952388
 H         2.1579505530       -0.4863322141       -5.2448362792
 H        -0.4478555374        1.8735908670       -2.5149040425
 H        -1.4717762978        0.3972377359       -2.8624841107
 H        -1.9872749938       -2.9624196399        0.5530900332
 H        -0.4329244765       -2.3273038143       -0.2479495735
 H        -0.8810352676        2.0649031423        0.9640347123
 H        -2.5882622443        1.6793120997        1.4247375350
 H        -2.2451544642        2.3049991579       -0.1771176184
 H        -3.6028361128       -1.0367993244       -0.1480435524
 H        -3.6146174649        0.5824244702       -1.0968169559
 H        -2.7241422202       -0.9091872054       -1.6647938717
 H        -0.0987895170       -4.1027135096        1.7065609974
 H        -0.5560718612       -2.8472874054        2.8205576366
 H         3.8358751227       -1.6422604894        3.0223530479
 H         4.0092894793       -3.1635994522        3.8042171039
 H         1.5104598426       -5.3647330697        2.6680350909
 H         2.7309697609       -4.7166252282        3.5267395228
 H         3.0842763933       -5.7630126736        2.2524209757
 H         1.3604963633       -5.1445470286        0.1383592260
 H         1.4380234720       -3.4280087407       -0.3369392237
 H         2.8105835689       -4.5778800805       -0.4863031225
 H         6.4255200594       -3.0774943096        3.4266207950
 H         6.2214809334       -2.4280567118        1.7433397196
 H         5.0648372142        2.8420478347        3.8882404815
 H         3.5523744577        2.6981708029        2.9540285387
 H         7.1302773181        1.4719017989        4.2012895649
 H         7.0360450870        2.2427813069        2.5690020568
 H         8.1734210972        0.8982038812        2.8129721009
 H         6.0440641509       -0.6176183593        0.5028066988
 H         6.5335863802        1.1271157018        0.4084033017
 H         7.6683556133       -0.0732089531        1.0224351134
 H         3.7679996411        2.4270599100        5.5912140881
 H         4.2281659761        0.7887990148        5.1707054527
 H        -0.5733742506        4.5892055327        4.6164950828
 H         1.1677912441        5.0035248069        4.7331149367
 H        -0.0931525316        0.7775564104        6.5049179919
 H        -0.5417056051        0.6900952085        4.7724976505
 H        -1.0691724340        2.0523972486        5.7903486343
 H         1.6181788298        2.3234528391        7.4030827991
 H         2.3949521006        3.5173559294        6.5240032280
 H         0.7211858183        3.6742447355        6.8046265999
 H        -0.0505748182        5.1499569896        2.0489346092
 H         0.2304641453        6.4381675863        3.0796031452
 H         1.3631944472        5.9684036477       -1.8805041457
 H         3.0250024896        6.1487606622       -1.7085144586
 H         2.3813619695        4.4906373993       -1.8674837699
 H         2.4299211720        8.3834627030        1.7559273770
 H         0.8734138306        7.8161522446        1.3799983559
 H         2.0973028125        7.9457390428       -0.0011171627
 H         4.3598252959        5.1849420959        0.7744069214
 H         4.3549948916        6.8308154445        0.1981626419
 H         4.4228473991        6.6013354670        1.9707499218
 Na        1.2386036678        0.8000708933        1.8807859485
