155

 C        -8.7458598996        0.5997769675       -4.7703296269
 C        -8.7081286016        0.2112458402       -3.3041675188
 C        -9.5608668699       -1.1105830789       -2.9015097950
 C        -8.5749570568       -2.2663411253       -3.4939658958
 C        -7.1625920891       -2.1882431563       -2.9717205223
 C        -9.5992735515       -1.3203001905       -1.3692512416
 C       -10.9029243117       -1.2192276873       -3.5992673002
 O        -8.1694183717        0.9107285233       -2.4639775051
 O        -8.9465900361       -3.0208448480       -4.3644261848
 C        -6.3874188576       -3.4750399956       -3.3186173857
 C        -4.9200586191       -3.2524859688       -3.7662916323
 C        -4.1136202121       -4.4381200009       -4.2580288256
 C        -3.1872703571       -3.9020483510       -5.4470949133
 C        -2.1909755415       -2.7431591542       -5.3440527079
 O        -4.3430740677       -2.1664646730       -3.6596343410
 O        -3.1679431537       -4.5316091809       -6.5053471621
 C        -3.2092863133       -4.9800878560       -3.1066181666
 C        -5.0082749810       -5.5762211476       -4.7304803299
 C        -0.7241544429       -3.2535758965       -5.3396510292
 C         0.2355276882       -2.0968834865       -5.5399307646
 C         1.4993648831       -2.1346569167       -4.5423226479
 C         1.0137194075       -1.6678062820       -3.1698734299
 C         0.5760542529       -0.2492926753       -3.0886481773
 C         2.0807716517       -3.5716085775       -4.4371735962
 C         2.5518578188       -1.1734896465       -5.1859530270
 O         0.1377810113       -1.1986640961       -6.3046570597
 O         0.7051492437       -2.5009239348       -2.2813323250
 C        -0.7910554420       -0.0980969267       -2.4063914848
 C        -0.5661368645        0.1303432521       -0.9770882703
 C        -1.7464225422        0.0519475879        0.1175855667
 C        -1.1871340766       -1.0031671477        1.1866413909
 C        -1.1247435791       -2.4768674068        0.7395799259
 O         0.5190088457        0.4059689117       -0.5469457740
 O        -0.8429218440       -0.6118580279        2.2675358299
 C        -1.7259431570        1.5202005069        0.7172133437
 C        -3.1779581724       -0.3319783273       -0.4179437616
 C        -0.1217035196       -3.3758583309        1.4326344764
 C         1.3126685215       -2.8404187851        1.3374717721
 C         2.5151444788       -3.8780343643        0.9821033646
 C         3.9199541464       -3.1273021156        1.3352722468
 C         4.0499249051       -2.4341254306        2.6848327016
 C         2.2961037598       -5.0925905768        1.9525108986
 C         2.5313839644       -4.1981566413       -0.4854582815
 O         1.4206573072       -1.6602291661        1.6118540130
 O         4.8503074750       -3.1637946898        0.5598716679
 C         5.5035173198       -2.1702545637        3.0602365968
 C         5.9117232731       -0.8623395597        3.6270005596
 C         5.9051244625        0.3926189124        2.6552743368
 C         4.5049706553        1.1062695242        2.6353687753
 C         4.2188049175        2.3480120197        3.4784213708
 O         6.3851043064       -0.8068182457        4.7480614786
 O         3.5857028852        0.6481122489        1.9796090284
 C         7.0543370605        1.3486742223        3.1541473262
 C         6.2111788774        0.0153412911        1.1852288056
 C         3.7199347626        2.0296507331        4.9762139991
 C         2.3121269782        1.3845961212        4.9269793329
 C         1.0838760972        2.2116569418        5.4992140595
 C         0.6467253204        3.0502806523        4.2461720738
 C         0.1435821667        4.5376310522        4.5619051179
 C        -0.0217570554        1.2385932776        5.9175988818
 C         1.4910115169        3.0574894811        6.6984033348
 O         2.0882762506        0.3203833526        4.4597898562
 O         0.6877436993        2.6000853597        3.1372938266
 C         0.2716502717        5.4337157384        3.3258995538
 C         1.6783087111        5.5069759763        2.8460382864
 C         2.1217825178        6.6064085559        1.7810417539
 C         1.5133085247        5.9504866227        0.3690400688
 C         1.9937237817        6.7507949630       -0.9988171592
 O         2.5536426072        4.7599439291        3.2409424123
 O         0.8539590036        4.9500748059        0.3747290210
 C         1.4845400136        8.0714241019        1.9186780693
 C         3.6385514213        6.7732490929        1.6962593199
 H        -9.7045974364        1.1509143410       -4.9676722588
 H        -7.8777986566        1.3909907629       -4.8817472891
 H        -8.7431607693       -0.2587318294       -5.4135179149
 H        -6.6289606707       -1.2976398327       -3.3149776560
 H        -7.2790720760       -2.0412939838       -1.8457160056
 H       -10.2121991700       -0.6242790038       -0.9301027917
 H        -8.6230489502       -1.2543431213       -0.9245467034
 H       -10.0177879855       -2.3238175636       -1.1758750973
 H       -10.7876526187       -1.9255335173       -4.3901330384
 H       -11.5234742853       -1.6275681343       -2.8678270335
 H       -11.2903034128       -0.2542678910       -3.8926473043
 H        -6.4374709289       -4.1011035439       -2.4739160209
 H        -6.9021556443       -3.9684941286       -4.1536000203
 H        -2.1734248231       -2.0331596972       -6.1940736159
 H        -2.3675951346       -2.1464502435       -4.4255492146
 H        -2.5960168299       -5.8273021534       -3.3432201015
 H        -3.8128456421       -5.2936702849       -2.2831102416
 H        -2.4407960126       -4.1237469785       -2.9565376392
 H        -5.6699073060       -5.8490554036       -3.9235821701
 H        -5.5161618627       -5.2163090939       -5.6216368440
 H        -4.3831238450       -6.3790068692       -4.8721909661
 H        -0.6419303021       -3.9813994530       -6.1811997502
 H        -0.5329894984       -3.9103251534       -4.5264900395
 H         1.3670353319        0.3719240657       -2.6603675283
 H         0.4710654988        0.1685315566       -4.1753917136
 H         2.3428389379       -3.9929557554       -5.3758218768
 H         1.4364418807       -4.2823363152       -3.8854119877
 H         2.9504213641       -3.6612162618       -3.8418712087
 H         3.2266162289       -0.7004510981       -4.4062703799
 H         3.1016281232       -1.8144879179       -5.8940918002
 H         2.1513298922       -0.2878504690       -5.7811517496
 H        -1.4353145089        0.6735684154       -2.8141896115
 H        -1.4148939995       -0.9829692828       -2.6010008500
 H        -2.1099847081       -2.9700464468        0.7856049200
 H        -0.8857014513       -2.5105181524       -0.3428616354
 H        -0.7867842874        1.9506642979        1.0739160267
 H        -2.4679473234        1.6532559805        1.4927035240
 H        -2.0025484022        2.2627654564       -0.0945738258
 H        -3.8199964693       -0.8181280320        0.3569791793
 H        -3.6059886529        0.5556420922       -0.9330136385
 H        -3.1728331103       -1.0105221192       -1.2964441229
 H        -0.1360690004       -4.3499041245        0.9429490479
 H        -0.3336970500       -3.3490320697        2.4748940659
 H         3.7230124121       -1.3871975789        2.6523772225
 H         3.5089704711       -2.8105238475        3.5599377382
 H         1.6722538580       -5.9316075200        1.5883207100
 H         1.9500346600       -4.7581699517        2.8680842724
 H         3.2411395848       -5.5925599073        2.2855956504
 H         1.5126937647       -4.5009254063       -0.8591991974
 H         3.0314275214       -3.5106371494       -1.1321253938
 H         2.9988161276       -5.1433754148       -0.4913295747
 H         5.9460870391       -2.9635740485        3.7698042354
 H         6.0140922173       -2.4173532680        2.1780947815
 H         5.1571275578        2.9950184507        3.3945582940
 H         3.4587085426        2.9202651570        2.8680986041
 H         6.7189426100        1.7028682199        4.1444534122
 H         7.2989755055        2.1715062094        2.3850179310
 H         7.9553689904        0.7775726576        3.1842042497
 H         6.3513575443       -1.0420486362        0.8770416910
 H         5.4696098977        0.4600944945        0.5632748881
 H         7.1347901771        0.5243042799        0.7904069451
 H         3.6371358108        2.8727756160        5.6397441970
 H         4.5193874698        1.3522201948        5.4097878514
 H        -0.9174713213        4.5832292785        4.8594736017
 H         0.6998440596        4.9752754886        5.3836733482
 H         0.5701419151        0.4058232489        6.3982752495
 H        -0.5982402673        0.8405091232        5.1194224577
 H        -0.7856664079        1.6705655740        6.6195991473
 H         1.9413545259        2.6788702443        7.5446234378
 H         1.9824379921        4.0157305351        6.4614943616
 H         0.4702143875        3.4339061203        7.0574253110
 H        -0.4942078465        5.0894877553        2.6245753768
 H        -0.1837213801        6.4001680553        3.5577394747
 H         2.0492918275        6.0120638931       -1.8521541230
 H         1.2777340683        7.4950333875       -1.3929886749
 H         2.9279467374        7.2550864682       -0.8596422583
 H         1.9409973720        8.4732864169        2.7357633370
 H         0.4705141401        8.0993797257        1.9734890403
 H         1.7702583117        8.7726680754        1.1303796593
 H         4.0349014872        5.8630546990        1.2527092805
 H         3.9051821435        7.7045584437        1.2241139438
 H         3.9294740760        6.7779115350        2.7922410549
 Na        1.2448265294        0.8730342696        1.9814691685
