155

 C        -8.6968545550        0.0827294350       -5.1100575709
 C        -8.6485005409        0.0200177771       -3.5742780612
 C        -9.1152386648       -1.4235466165       -2.9479023268
 C        -8.2177605287       -2.4776969036       -3.7174473991
 C        -6.7368511963       -2.3193792502       -3.4825278366
 C        -8.8895052782       -1.4796560492       -1.4062500913
 C       -10.5441337860       -1.5771928642       -3.2181498106
 O        -8.1028950323        0.8750475122       -2.9189421229
 O        -8.6329703469       -3.3978676496       -4.3501128368
 C        -5.8663690966       -3.0796028275       -4.4803698320
 C        -4.5156041362       -3.4930305340       -3.8770097093
 C        -3.6330037813       -4.5400179527       -4.5344073762
 C        -2.9861857079       -3.7791016022       -5.7831268591
 C        -2.0731861885       -2.5905934108       -5.6686680090
 O        -4.1426037364       -2.8747818497       -2.8987684208
 O        -3.2959310077       -4.2856468151       -6.8605568795
 C        -2.6216634092       -5.0372170293       -3.5916332196
 C        -4.3935617600       -5.8172074100       -5.1310907061
 C        -0.5597161836       -2.9795592171       -5.5294933781
 C         0.2421152114       -1.6794380612       -5.6412927719
 C         1.5576838028       -1.6872822730       -4.8206477106
 C         0.9790576828       -1.6897074979       -3.2983714569
 C         1.1219408901       -0.4578748054       -2.4069094390
 C         2.3855707362       -2.9877022463       -5.0223716464
 C         2.4622270516       -0.5160481140       -5.0686698118
 O        -0.1993687167       -0.7513792311       -6.2603178370
 O         0.3758634826       -2.6461947829       -2.8700064534
 C        -0.2903122399        0.1110725467       -2.1095261952
 C        -0.3334128949        0.4965638295       -0.6028142398
 C        -1.5256997989       -0.2154859505        0.2949109473
 C        -0.8507173164       -1.3982838082        1.0670293385
 C        -1.1917615974       -2.8666965218        0.6869263300
 O         0.5034597192        1.2094511262       -0.1000693035
 O        -0.1135918074       -1.1937430380        2.0145472301
 C        -2.0346370031        0.6822706238        1.3063812234
 C        -2.7641709098       -0.6873205155       -0.5117164975
 C        -0.0398513549       -3.8379607833        1.0469508137
 C         1.4142160282       -3.2745690861        0.8191482687
 C         2.4935262322       -4.2964614299        1.0162865271
 C         3.8954543468       -3.6830072980        1.4892608446
 C         3.9252174689       -2.7321128775        2.6786122083
 C         2.1574047051       -5.5236611572        2.0065726710
 C         2.5974879919       -4.9068602713       -0.3864565945
 O         1.6488087057       -2.1151416466        0.5566104277
 O         4.8596411783       -4.1191032405        0.9218009960
 C         5.3708597454       -2.1845117558        3.1154965882
 C         5.4198398173       -0.7165757334        3.6425104701
 C         5.7855105771        0.5359340158        2.7195874349
 C         4.4172314302        1.2842183169        2.3634048492
 C         4.0597875267        2.5114062397        3.1922553811
 O         5.2339636022       -0.5893544517        4.8531837188
 O         3.8042644146        0.8223931110        1.3978706829
 C         6.7256007662        1.5802447679        3.5059111370
 C         6.3608804756        0.1515629448        1.3500066240
 C         3.6873447859        2.3303810308        4.6374441453
 C         2.3453055301        1.4346298147        4.6533228655
 C         1.0249565613        2.0127980042        5.1955923576
 C         0.3675736228        2.8211719795        4.0455552325
 C        -0.3798234640        4.1602627988        4.3064091266
 C         0.0071182400        0.9236282029        5.5672792632
 C         1.2595429162        2.8192101489        6.4791522300
 O         2.4267917331        0.3953216267        4.0824812658
 O         0.2871335648        2.3740602283        2.9451313855
 C        -0.1337457698        5.1052303876        3.1505601145
 C         1.2630677093        5.8966704369        3.5040101640
 C         1.4102478862        7.3149165569        2.7570409878
 C         0.9557708279        7.2802637782        1.2457608039
 C         1.2673404628        8.4879255407        0.3199765003
 O         2.1166207140        5.4046827013        4.2065642306
 O         0.3648094705        6.3590507389        0.8134268110
 C         0.5525946884        8.3943476576        3.4698027382
 C         2.9884218584        7.5903039615        2.7612731793
 H        -9.7834031852       -0.0464055535       -5.4636401898
 H        -8.3276692293        1.0045974020       -5.7289886523
 H        -8.0498208511       -0.6590818786       -5.5335150116
 H        -6.5091041889       -1.1976241258       -3.4154879513
 H        -6.5306466956       -2.7511019599       -2.5062502048
 H        -9.6037596443       -0.8434089948       -0.9837165158
 H        -7.8804139852       -1.3761516281       -1.0370922059
 H        -9.2994767608       -2.5133230197       -1.2182440544
 H       -10.7631293007       -2.0307728168       -4.1633476363
 H       -10.9733862992       -2.2045460182       -2.4867455963
 H       -11.0469541856       -0.6416468306       -3.0543727929
 H        -6.3782490339       -4.0218998789       -4.7197040109
 H        -5.8799264774       -2.5495354553       -5.4085963227
 H        -2.1200095503       -2.0842838646       -6.6624720722
 H        -2.2872462158       -1.9101640495       -4.8506616423
 H        -1.9704340035       -5.7808330194       -4.0295403694
 H        -3.0073654879       -5.4584287322       -2.6463957370
 H        -1.9689710210       -4.1933332063       -3.1566419875
 H        -4.9491020395       -6.2770346409       -4.3685749469
 H        -5.0933542144       -5.6129361694       -5.9618260194
 H        -3.6898565210       -6.5101575035       -5.5740781004
 H        -0.3232696262       -3.5460364371       -6.4035691997
 H        -0.4791974179       -3.5355030501       -4.5661814015
 H         1.5787111137       -0.8711358105       -1.4952259126
 H         1.7498871130        0.3126959908       -2.8776076704
 H         2.8530206755       -3.1390209474       -5.9319388929
 H         1.7748423230       -3.9145356883       -4.8346614132
 H         3.0929067973       -2.9881312094       -4.2330293986
 H         3.2109392600       -0.4671328990       -4.2342338760
 H         3.0535293113       -0.6193121792       -5.9952173405
 H         1.8235950277        0.4327468198       -5.1022766868
 H        -0.6390755433        0.9409360606       -2.7382459643
 H        -0.9742147105       -0.7399232640       -2.2145095860
 H        -2.0145453207       -3.1859365673        1.2916691543
 H        -1.5227197895       -3.1285855501       -0.3236932255
 H        -1.3192214647        1.2889475174        1.8600551092
 H        -2.5926689727        0.1674495035        2.1295877347
 H        -2.7353970323        1.4660010170        0.9447843730
 H        -3.5925530292       -0.9035824709        0.2522767707
 H        -3.0426194754        0.1181691918       -1.2129421994
 H        -2.5217677681       -1.6470641253       -1.0509572961
 H        -0.0352302901       -4.7801338679        0.4875439301
 H        -0.0503090610       -4.1723658223        2.0944703236
 H         3.2901838438       -1.8783836692        2.4594867363
 H         3.5343253234       -3.0553673196        3.5984535206
 H         1.2558498158       -6.0495692546        1.7473657086
 H         2.1831949771       -5.2190285575        3.0167533786
 H         2.8973858570       -6.3092094394        1.7337724144
 H         1.6846593902       -5.5721274071       -0.3521673636
 H         2.4578702141       -4.2090781991       -1.1700895374
 H         3.4708293188       -5.4593278110       -0.6156612397
 H         5.5281351512       -2.8267814001        3.9496384839
 H         6.1209381747       -2.3599400449        2.2906326199
 H         4.9897391768        3.1481166852        3.1348274468
 H         3.2243524201        3.1074324055        2.6992469336
 H         6.4522866302        1.6497950010        4.5613263480
 H         6.7487215991        2.6554359532        3.1051900354
 H         7.7637211778        1.2521724193        3.3745519390
 H         7.3238732183       -0.3925942504        1.4635854533
 H         5.7625616835       -0.5848147485        0.8054839682
 H         6.4755401840        0.9905831130        0.6724010883
 H         3.4951273573        3.3189059511        5.0631702624
 H         4.5076422508        1.8995384850        5.2662268153
 H        -1.4266651262        3.8619840811        4.2606629397
 H        -0.2652063608        4.6735970655        5.2907290389
 H         0.0623940779        0.7424552716        6.6846237677
 H         0.0164596099       -0.0115236229        5.0166558841
 H        -0.9800190452        1.3060204992        5.4676454371
 H         1.7503181291        2.1652665161        7.0981702676
 H         1.9817664286        3.6957957663        6.3778906211
 H         0.2824802128        3.2174477482        6.8784965487
 H         0.0583740035        4.4925449755        2.2511049037
 H        -1.0875316592        5.6293957281        3.0511558366
 H         2.3622169192        8.6995747287        0.2267626111
 H         0.8112912039        8.2501721218       -0.6074839845
 H         0.8317596163        9.4612531827        0.5697202986
 H         0.9967034552        8.5946067267        4.3738311175
 H        -0.3276629201        8.0116568033        3.7693533491
 H         0.3832230866        9.3152824131        2.9188910873
 H         3.4622537564        7.1496168123        1.8909580027
 H         3.0648682297        8.6890946884        2.6261347126
 H         3.3820142132        7.2245492901        3.6846435578
 Na        1.5543603591        0.4719596651        2.0231976772
