155

 C        -8.9267757148        0.0621622877       -5.1678073470
 C        -8.6709876581       -0.0600246951       -3.7201512126
 C        -9.0279596006       -1.4567500435       -3.0360839514
 C        -8.0483395011       -2.4953416616       -3.7520433936
 C        -6.5425455889       -2.2296404109       -3.5385849466
 C        -8.6298565129       -1.4537614133       -1.4887165673
 C       -10.4957306889       -1.7496832440       -3.3307036308
 O        -7.9510289283        0.6364758057       -2.9788806285
 O        -8.4936385108       -3.3957307972       -4.4406566485
 C        -5.6778625112       -3.1646115576       -4.3504933112
 C        -4.3375091026       -3.4749658730       -3.7714098590
 C        -3.5811150117       -4.5884197463       -4.6434542123
 C        -3.0511197131       -3.8327895427       -5.9057351317
 C        -2.2534373512       -2.4890306146       -5.5352012230
 O        -3.8872298348       -2.9551708461       -2.7455219386
 O        -3.1817333725       -4.1742470715       -7.0913739621
 C        -2.3810357465       -5.0864465409       -3.8210964299
 C        -4.5025733585       -5.7506761729       -5.0501704516
 C        -0.7355117757       -2.7984599637       -5.7315458310
 C         0.1566267607       -1.5606544723       -5.5863785714
 C         1.5014691986       -1.6642539265       -4.7786153440
 C         1.0601135804       -1.7462686482       -3.2670447745
 C         1.1426534988       -0.5245608553       -2.2641632721
 C         2.3472265639       -2.9376825648       -4.9806649610
 C         2.3050648453       -0.3938534985       -5.1872287475
 O        -0.1188004764       -0.5493887728       -6.2238731859
 O         0.3539061961       -2.6906181602       -2.9315848159
 C        -0.2970861530        0.0679725314       -2.0956908815
 C        -0.4863578443        0.3556979072       -0.6151411195
 C        -1.5942057296       -0.2840585622        0.2755508880
 C        -0.8590799617       -1.4836485986        1.0510339392
 C        -0.9886791483       -2.8082808897        0.4317993056
 O         0.2810903889        1.0621528602        0.0146995815
 O        -0.2423861104       -1.2065251019        2.0719986542
 C        -2.0932311882        0.7353053417        1.2994724873
 C        -2.7357532736       -0.7788919722       -0.5946899842
 C        -0.0796567327       -3.8823711748        1.0057557473
 C         1.4262150389       -3.3933094365        0.8911876450
 C         2.5483756333       -4.3557409015        1.1660134573
 C         3.9499471873       -3.7650081495        1.4921740806
 C         3.9372156034       -2.5904478961        2.4677367691
 C         2.2576010565       -5.3600895771        2.1617206425
 C         2.6379442622       -5.0499244455       -0.3112951058
 O         1.6618029508       -2.2473997241        0.5458820546
 O         4.9946612495       -4.2756432361        1.0743947418
 C         5.3523820097       -2.0912710621        2.9923199054
 C         5.3658879813       -0.6740602760        3.5800642532
 C         5.8554442532        0.6264300207        2.6958173644
 C         4.5191216608        1.2433610850        2.2219974892
 C         3.9885039268        2.5863617621        2.9995678507
 O         5.1497743888       -0.5192401777        4.7226955756
 O         3.8258841942        0.7810325138        1.3236742864
 C         6.8173354769        1.4390395964        3.5966472272
 C         6.7635204384        0.0411524310        1.5118698932
 C         3.4445438695        2.3446513511        4.5099359430
 C         2.3127775759        1.3762224749        4.6508701581
 C         0.9568919950        1.8944458971        5.1687189902
 C         0.3522701566        2.7992376143        4.0075667450
 C        -0.5066926504        4.0128172828        4.3078805342
 C         0.0462416345        0.6740803194        5.5759677721
 C         1.1751782462        2.8088640751        6.4025798837
 O         2.3465400559        0.1787245861        4.3393521152
 O         0.5657945270        2.4311385487        2.8487652235
 C        -0.2986020692        5.1909680468        3.3102481476
 C         1.0461435077        5.9247615641        3.5180727869
 C         1.3457232802        7.4261587184        2.8770511102
 C         0.8666790298        7.5234479172        1.3619070929
 C         1.1883192617        8.8341002757        0.7419031073
 O         2.0008230958        5.4328066869        4.1218168151
 O         0.1860300375        6.6353139660        0.7743775084
 C         0.4687055908        8.3234753247        3.7819221958
 C         2.8675892195        7.8564260995        3.1175489730
 H        -9.8003504001       -0.2266219204       -5.5773650012
 H        -8.7128081349        1.0552412182       -5.5168774712
 H        -8.0644666766       -0.3899509485       -5.6710915312
 H        -6.3571519050       -1.2340952601       -3.7326144172
 H        -6.3052772406       -2.5116430964       -2.5076766994
 H        -9.4641034182       -0.9183119322       -1.0209653445
 H        -7.6925545728       -0.9697413908       -1.4059851455
 H        -8.5518346625       -2.3960660032       -1.0927135229
 H       -10.6771951304       -1.8482033525       -4.3896211312
 H       -10.8946397920       -2.7193103918       -2.9040313006
 H       -11.2338481948       -1.1084375335       -2.7121079085
 H        -6.2405923870       -4.0809789529       -4.5652751254
 H        -5.5285868585       -2.7626465907       -5.3971801837
 H        -2.4020866944       -1.6752760581       -6.2250727747
 H        -2.3690665633       -2.0960588897       -4.4951976598
 H        -1.4823181553       -5.5459519648       -4.3029214938
 H        -2.6476470461       -5.8834406061       -3.0919783661
 H        -2.0529954520       -4.2906688543       -3.2584673708
 H        -4.8652931448       -6.3217793959       -4.1662257076
 H        -5.3738032582       -5.4652831440       -5.5845518081
 H        -4.0232978886       -6.5016571176       -5.7188991393
 H        -0.6227185736       -2.9876578571       -6.8505841930
 H        -0.4760147720       -3.6118777759       -5.0711923945
 H         1.4876717810       -0.9775050643       -1.3254981024
 H         1.7666675580        0.2820531659       -2.5088494071
 H         2.4958798034       -3.1520853140       -6.0816398749
 H         1.8839715250       -3.8047633806       -4.5258128946
 H         3.3325362878       -2.8924824836       -4.4255396117
 H         3.3353582787       -0.4339505193       -4.9241000623
 H         2.2192484049       -0.2572992625       -6.2963849273
 H         1.8566601738        0.4314060351       -4.7183085953
 H        -0.3087439512        1.0298437424       -2.6129111776
 H        -1.0753972631       -0.5711224999       -2.4992329080
 H        -2.0050831418       -3.2267064540        0.5529905240
 H        -0.7637467055       -2.7661949116       -0.6153296500
 H        -1.3513157405        1.3159549418        1.8040675293
 H        -2.7056504315        0.3024153541        2.1135761279
 H        -2.5817085540        1.5680065560        0.8494293757
 H        -3.1968316829       -1.5382871809       -0.0605049572
 H        -3.3014276679        0.1075243498       -0.7902639930
 H        -2.5682749777       -1.1726075161       -1.5933474338
 H        -0.2445397927       -4.9126838447        0.6767959505
 H        -0.1783877332       -3.9291027945        2.1003740346
 H         3.3671786872       -1.7089879940        2.1424411821
 H         3.3643001370       -2.9057913059        3.4120113914
 H         1.2378041536       -5.7526537393        1.9146614613
 H         2.2209047109       -4.7047932826        3.1092167083
 H         2.8960981103       -6.2251462779        2.2387393994
 H         1.9235964845       -5.7851767636       -0.5183907517
 H         2.5920866167       -4.1931563793       -1.0153103200
 H         3.6612430090       -5.5038892200       -0.4402168089
 H         5.5624850552       -2.7964820401        3.8170425906
 H         6.0476124165       -2.1471154576        2.1640023219
 H         4.7286632601        3.3637028539        3.1070506292
 H         3.1889740986        2.9843599880        2.4040188607
 H         6.2780079216        2.0748278036        4.3139824921
 H         7.3856792566        2.1061793613        2.9992037248
 H         7.6275767810        0.7507343201        3.9544859787
 H         7.5898711982       -0.5161122205        1.9129826429
 H         6.2612183110       -0.5682391537        0.7161841429
 H         7.1774318862        0.8649760226        0.9115442397
 H         3.1796710029        3.3309141353        4.9467689746
 H         4.1846307735        1.9370917251        5.1842728166
 H        -1.5855376302        3.7128865633        4.2774039889
 H        -0.3038998704        4.3104140573        5.3199987668
 H         0.0799837389        0.4646352208        6.6067006534
 H         0.5276129560       -0.1913796027        5.0405518128
 H        -1.0036070839        0.5646349731        5.2271508500
 H         2.1802845638        2.4379946124        6.8635035976
 H         1.4396321013        3.8000615251        6.1171260986
 H         0.2901229092        2.9242065656        7.0172154185
 H        -0.2500522938        4.9153763087        2.2537666117
 H        -1.1302792586        5.8716741468        3.5630248030
 H         2.1991192081        9.1181692370        1.0062039187
 H         0.9314850036        9.0758024953       -0.3231593239
 H         0.5861344415        9.5745043107        1.3378243030
 H         0.4584964993        8.1351840464        4.8872311316
 H        -0.6420600079        8.3329622971        3.4442122435
 H         0.7884782568        9.3937076644        3.6127974379
 H         3.4806554724        7.1357204663        2.5555375751
 H         3.0376984355        8.8502462315        2.7398420702
 H         3.0224016663        7.7614436081        4.1989516552
 Na        1.3898500655        0.5237487750        1.9459402392
