155

 C         4.6823471207       -8.9750488467        0.5879391084
 C         5.2566400205       -7.7548161222        1.3913841475
 C         4.9889515793       -6.3214849124        0.7904710446
 C         3.5703751061       -5.9745787453        1.4974635033
 C         3.2285473582       -6.2916004940        2.9529968528
 C         6.0675045658       -5.4384604583        1.3849892978
 C         4.8386193481       -6.1637078870       -0.7115415613
 O         5.5855834247       -7.8782949061        2.5733567951
 O         2.8248013500       -5.2149319723        0.8819628516
 C         1.9318918199       -5.4178988984        3.3162145690
 C         2.3670070261       -4.0623373335        3.9182857679
 C         1.3497979911       -2.8889525825        3.8036192794
 C         1.9322407284       -1.4792057325        4.2680037049
 C         3.0823589545       -0.9975522334        3.4148279016
 O         3.3306737551       -3.8336123338        4.6045511477
 O         1.5496022744       -0.8699361540        5.2817169680
 C         0.6022648089       -2.7696070116        2.3548773354
 C         0.3063706805       -3.3434467699        4.9091974651
 C         3.0525323804        0.6164028861        3.5553028764
 C         2.1589020924        1.3542448182        2.5674416944
 C         1.4467510502        2.7076532734        2.8643761764
 C         2.0298439632        3.7772318248        1.8258959859
 C         2.6309558056        5.0506264468        2.5252835029
 C        -0.1355374987        2.5121805161        2.5970143487
 C         1.6051104279        3.0783197322        4.3838970405
 O         2.0117727173        0.8212805995        1.4502476838
 O         1.8203407063        3.6757323066        0.6314748927
 C         3.8155260710        5.5993660491        1.7492564157
 C         4.9648855801        4.6328318267        1.6702348330
 C         6.1389963800        4.9637563907        0.6976308796
 C         5.6567834718        4.7191137553       -0.8187824996
 C         5.8848662359        3.2003288943       -1.2980122193
 O         5.1468906029        3.7090639361        2.4154576619
 O         4.9192933554        5.4215997270       -1.4066787333
 C         6.5814268218        6.4880771550        0.8917621336
 C         7.3440003911        4.1400905142        1.0645381698
 C         5.2803463889        2.9127506543       -2.6652510887
 C         3.9374647506        2.0888296205       -2.5910534715
 C         3.9422689517        0.5382034006       -3.0071751777
 C         2.4840621050        0.0382070612       -2.7935752712
 C         1.6256543271       -0.4570363093       -3.8840999452
 C         4.4359173878        0.5073543421       -4.4469538603
 C         4.9870430034       -0.2128745827       -2.2297923493
 O         3.0097007208        2.6857326803       -2.0748170296
 O         2.1179237643        0.0305069140       -1.6489713115
 C         0.1510489906       -0.7724919012       -3.4960344960
 C        -0.5045543960        0.5482232655       -3.0844348923
 C        -1.9636086795        0.7234429560       -2.6087146599
 C        -1.9553878121        0.9191969749       -1.0018517277
 C        -3.0991742103        0.1724130424       -0.1431271723
 O         0.1520886041        1.5656924985       -3.0697481430
 O        -1.0609179796        1.5231859768       -0.5000657639
 C        -2.5633074744        2.0122256139       -3.2340154886
 C        -2.8319614080       -0.4978993024       -3.0192172254
 C        -4.4829768612        0.9212829386       -0.0363059583
 C        -5.7693707780        0.0677941714       -0.1077683251
 C        -7.1056840797        0.7230184384        0.1945220471
 C        -7.7740808540        0.9926101285       -1.2701764771
 C        -8.1988815855       -0.3566556828       -1.9359924825
 C        -8.0735980044       -0.0336138541        1.1386852374
 C        -6.8795925055        2.1217691312        0.8760300880
 O        -5.6722594410       -1.0418890597       -0.6249350690
 O        -7.9918113173        2.1065968261       -1.6646686400
 C        -9.2890570702        0.0616903052       -2.9948581071
 C       -10.1027152081       -0.9848779341       -3.8019061967
 C       -11.4286809043       -0.2962932807       -4.3392533430
 C       -12.2512935453       -0.0711551129       -2.9114640911
 C       -13.1174332351       -1.2136440133       -2.2953454981
 O        -9.8113391859       -2.1451919339       -3.8937295363
 O       -12.0162835125        0.9596109833       -2.3086868508
 C       -11.2934898557        1.1364331771       -4.8597185556
 C       -12.3028515588       -1.0525017260       -5.3176362605
 H         5.0103022869       -9.9705857319        1.1699777758
 H         3.6180904764       -8.9342064955        0.5167486220
 H         5.0614967539       -9.1135563930       -0.4037668196
 H         2.8921920207       -7.3730108836        3.0873926216
 H         3.9481707830       -5.7900483677        3.6009695285
 H         7.0790053995       -5.4515635155        0.9407369936
 H         6.2093242496       -5.8315793255        2.3921951552
 H         5.7220836624       -4.3841148576        1.5738653825
 H         5.6358297795       -5.4849496968       -1.1104776335
 H         4.8101203365       -7.0186514916       -1.4512979236
 H         3.9124736106       -5.6987653822       -0.8986935162
 H         1.3469976830       -5.1980138346        2.4429207286
 H         1.3382867372       -5.9604987510        4.0864064969
 H         4.1045490575       -1.3522644257        3.6484537729
 H         2.8870157058       -1.2610804571        2.3369275205
 H        -0.0734934299       -3.6313037715        2.2141441688
 H         1.2488408744       -2.5324986680        1.5808149999
 H        -0.0547615408       -1.9112586825        2.3959262900
 H         0.6714433240       -3.6512062436        5.8392363517
 H        -0.3212807766       -2.4695758282        5.1526787967
 H        -0.2233609028       -4.2108472855        4.4713922076
 H         4.0626373734        0.9751150902        3.5892074116
 H         2.6276508056        0.6918909220        4.5271488908
 H         1.8565943511        5.8050580928        2.6879589236
 H         2.9671110772        4.8898351852        3.5346061553
 H        -0.6316523936        3.5465889378        2.3797109926
 H        -0.6503021872        2.0231133306        3.4756099189
 H        -0.3697041143        1.9559040531        1.7047566323
 H         1.2428876319        2.3743703859        5.0899791128
 H         2.6601294821        3.1914260492        4.6094876025
 H         1.1900697870        4.0790926958        4.6036988179
 H         3.5702517984        5.9853995571        0.7465974231
 H         4.2402395797        6.4884391663        2.2084388620
 H         6.9932708401        3.2412069148       -1.3806961878
 H         5.4148080550        2.6622831848       -0.4928177313
 H         7.6184611870        6.5607375534        0.4725161964
 H         6.7738021372        6.7074299163        1.9617405960
 H         5.9019311078        7.2469843443        0.3717732061
 H         8.1342529415        4.1450115418        0.3473323107
 H         7.7050882703        4.4592498027        2.0490237071
 H         6.9712954434        3.1305834479        1.3170705258
 H         6.1746218300        2.6731164966       -3.2763018290
 H         4.9727401821        3.8600592952       -3.0772827912
 H         1.7093340855        0.2138406583       -4.7323440343
 H         2.1335497269       -1.3470650119       -4.1992688038
 H         5.2246005425        1.2932046166       -4.6084483428
 H         3.6057087306        0.5421197176       -5.2015010308
 H         4.8965493365       -0.4508346890       -4.6582418873
 H         5.9564377878        0.2575940281       -2.4750172588
 H         4.6320355458       -0.1723014238       -1.1944868762
 H         4.9781649891       -1.2316956053       -2.5625341380
 H        -0.3176766815       -1.2503509190       -4.3928145005
 H         0.1394220410       -1.5832089566       -2.6973307683
 H        -3.2679337337       -0.8995639167       -0.3103021249
 H        -2.8273800464        0.1401352745        0.9303833980
 H        -2.0816845987        2.8752571982       -2.8656215613
 H        -3.5989111066        2.2253950388       -3.0100707608
 H        -2.5050903506        2.0132715372       -4.3452420163
 H        -3.8493997396       -0.4583754970       -2.7120817981
 H        -3.1343168623       -0.5095878136       -4.0911246591
 H        -2.3824380860       -1.4627714018       -2.6446666100
 H        -4.6330816090        1.5969584569       -0.9367044982
 H        -4.5216656913        1.6376143928        0.7911845476
 H        -7.4437794245       -0.9237896422       -2.3841268199
 H        -8.7012715041       -0.9080815552       -1.1039047212
 H        -7.6359765649        0.0516568926        2.0824338906
 H        -8.1543765181       -1.1063589158        0.9370264271
 H        -9.0730065521        0.3918993632        1.2084785004
 H        -7.8572253024        2.4065528545        1.2400719538
 H        -6.2699760995        1.8763942518        1.7005060138
 H        -6.5175488771        2.8842436909        0.1786804009
 H        -9.9960556721        0.7426519509       -2.4690070955
 H        -8.7853163219        0.6446941899       -3.7843047024
 H       -12.4914705414       -2.0036544170       -1.9773195904
 H       -13.5869301768       -0.7792532437       -1.4000110387
 H       -13.8917384790       -1.5668647032       -2.9684929909
 H       -10.8588315993        1.0900538435       -5.8300335504
 H       -10.7402240905        1.8045667651       -4.2229750085
 H       -12.2911780498        1.5687089816       -4.9517678368
 H       -13.2814376661       -0.5871259145       -5.4925640698
 H       -11.8356589167       -1.1372869164       -6.3227761769
 H       -12.4525777968       -2.0528818191       -4.9710407646
 Na        1.1842787026        1.9382053557       -0.6356427375
