155

 C        -9.3884032408        0.2716962712       -4.5982789678
 C        -8.1373605337       -0.4195710349       -4.0621556509
 C        -8.3296159685       -1.7913210078       -3.2248314005
 C        -7.4669390363       -2.9898496126       -3.8381600419
 C        -5.9620808968       -2.9221864549       -3.4964090927
 C        -7.7708802838       -1.4096761265       -1.8522439722
 C        -9.7242605055       -2.2020023393       -3.1548693885
 O        -7.0581236792        0.0625166405       -4.2130342559
 O        -7.9638208387       -3.7721724945       -4.6566881039
 C        -5.1331225966       -3.9653988352       -4.4217374702
 C        -3.6843579495       -4.0893300558       -3.9729526065
 C        -2.6603135221       -4.6569560815       -5.0576273917
 C        -2.4881928989       -3.5008766075       -6.0798206750
 C        -1.6171532620       -2.2289709014       -5.6693833642
 O        -3.2991094555       -3.5232260493       -2.9653106985
 O        -2.9295492158       -3.6188244544       -7.2175736106
 C        -1.2317426927       -4.9856285565       -4.4487182234
 C        -3.0978635081       -5.9622627075       -5.9016522674
 C        -0.9775764952       -1.5231905286       -6.8600796959
 C         0.1812254429       -0.6322379175       -6.3891637861
 C         1.5666884548       -1.2433203798       -5.8544840526
 C         1.2755662081       -1.3778543108       -4.3102957950
 C         0.8551331070       -0.1594649363       -3.4839061268
 C         1.9292093856       -2.6341505412       -6.5227403873
 C         2.6942584306       -0.2462058712       -6.0233939324
 O        -0.0422454040        0.5714658879       -6.1937100433
 O         1.4369565928       -2.4192650016       -3.6942262448
 C        -0.3700643912       -0.5140205840       -2.6680540130
 C        -0.3268529984       -0.2647086066       -1.1155351705
 C        -1.6755227622       -0.6144500014       -0.1411515163
 C        -1.3013378708       -1.5262039021        1.0976424506
 C        -0.8130394798       -2.8813321453        0.7404104707
 O         0.6752784463        0.2109629063       -0.6588971219
 O        -1.2511226067       -1.0453078598        2.2311273741
 C        -2.4359540482        0.6044857576        0.3914655615
 C        -2.6638401072       -1.4662274836       -1.0128457191
 C        -0.0554476099       -3.5067740584        1.8924131201
 C         1.5038828221       -2.9841767861        1.7155661841
 C         2.6037717798       -3.9617782362        2.1749253563
 C         3.9388681175       -3.2156972081        2.1356013887
 C         4.2082213825       -2.2995449030        3.2825986806
 C         2.2743437084       -4.5152137823        3.6804324563
 C         2.6862288495       -5.1358910286        1.2171238257
 O         1.8322456966       -2.0330233593        1.0174822118
 O         4.7809434832       -3.4090506377        1.2806561749
 C         5.6885545421       -1.8320097023        3.2087776151
 C         5.7621151452       -0.2784049084        3.5339978485
 C         5.6661874054        0.8317157082        2.2716868108
 C         4.2358466537        1.3299444642        2.1469469613
 C         3.6046679531        2.3851927183        3.0964118305
 O         5.8841641411        0.0774841353        4.6434450586
 O         3.4053894199        0.7315579759        1.4757916675
 C         6.6422520301        1.9616256047        2.6733538289
 C         6.0143095758        0.1461716784        0.8198666928
 C         3.1404556167        1.6793333396        4.4132138172
 C         1.8457016725        0.8766066989        4.2606975255
 C         0.5517242277        1.5950764291        4.5728099765
 C         0.1613238696        2.6573374336        3.3306279757
 C        -1.0379799531        3.5369914749        3.5861138211
 C        -0.5660197036        0.5804998811        4.6756377933
 C         0.6161814630        2.3628582006        5.9887778608
 O         1.9497665226       -0.3337721478        3.9086093465
 O         0.6398670644        2.5733947938        2.2091588443
 C        -0.7965115347        5.0923655226        3.5055269377
 C         0.4499889635        5.6169679242        4.1938649527
 C         0.4224235900        6.9782161144        4.8943864266
 C         0.0751348262        8.0932538209        3.7975917054
 C         0.4477025116        9.5700329639        4.0898583079
 O         1.4964409466        4.9761539955        4.0999533850
 O        -0.5347086009        7.8071496346        2.7399381626
 C        -0.8361528521        7.0466409478        5.7303446024
 C         1.6928845842        7.3248454133        5.7406029417
 H        -9.0314511023        0.8038482271       -5.5058443693
 H       -10.2710233187       -0.3238641866       -4.8545278543
 H        -9.8684797038        1.0356422097       -3.8228424399
 H        -5.6865514207       -1.8585856952       -3.6865517567
 H        -5.7528978165       -3.1077301821       -2.3852175688
 H        -8.3951773616       -0.6929156856       -1.4621624004
 H        -6.7678683421       -1.0521200509       -1.8306455419
 H        -7.7757774954       -2.2616397384       -1.1674035154
 H       -10.0608957924       -2.7477829394       -4.1169463625
 H        -9.9730863222       -2.9214417856       -2.3759816669
 H       -10.4117201352       -1.4808789786       -2.8415656144
 H        -5.5696050291       -4.9484475257       -4.3987864448
 H        -5.1820042058       -3.6317329291       -5.4656327883
 H        -2.3520479209       -1.5625603857       -5.2592239278
 H        -0.8386346893       -2.4906309924       -4.9200275678
 H        -0.4231594679       -4.9166270021       -5.1199027282
 H        -1.1245120039       -5.9988125296       -4.1432016749
 H        -0.9322164303       -4.3921486983       -3.5167482293
 H        -2.8686238236       -6.8584139049       -5.3049753181
 H        -4.2094937854       -6.0514945958       -6.0991609101
 H        -2.6537971332       -6.0299323444       -6.8780911360
 H        -1.6397932877       -0.8671872051       -7.4059607405
 H        -0.4627843872       -2.1603690176       -7.5696790500
 H         1.6935010408        0.0038113548       -2.7694801818
 H         0.6168859294        0.8041279761       -4.0335207154
 H         1.5883453794       -2.6308962167       -7.6128602862
 H         1.4576671280       -3.3981430653       -5.9121980058
 H         3.0190058652       -2.7973754902       -6.4235213360
 H         3.6726755514       -0.5141472252       -5.6313599647
 H         2.7274396785       -0.0711242857       -7.0189862686
 H         2.3219805226        0.6963834285       -5.6469634052
 H        -1.2430449092        0.1016508750       -3.0094473096
 H        -0.7571288087       -1.5226625188       -2.7555937358
 H        -1.5485214057       -3.6394549333        0.2946684022
 H        -0.1618880708       -2.8118638361       -0.1287729592
 H        -1.9182058227        1.2920301131        1.1284430123
 H        -3.2142432973        0.2969608410        0.9702038701
 H        -2.8282864401        1.2903067403       -0.3989828751
 H        -3.4229113153       -1.9434531989       -0.3437795703
 H        -3.0609759289       -0.8306828027       -1.8436048776
 H        -2.2635025836       -2.2833635263       -1.5580770415
 H         0.0403489648       -4.5687529168        1.8195128147
 H        -0.5000202942       -3.1258660010        2.8129328369
 H         3.4779363856       -1.5281841524        3.0851498684
 H         3.9762057280       -2.8969790466        4.2049329647
 H         1.6333315448       -5.4131578382        3.6414164439
 H         1.7623047662       -3.7186258558        4.1908995379
 H         3.2991146514       -4.8359857313        4.1071061739
 H         1.8197140830       -5.8628843591        1.3688462679
 H         2.6660726039       -4.7910731395        0.2188803615
 H         3.5941725223       -5.6953970907        1.2732658637
 H         6.3390370869       -2.2664460055        3.9244662684
 H         6.2909659144       -1.9305269831        2.2581974635
 H         4.2061888217        3.2657307837        3.4177250210
 H         2.6917916845        2.8151325819        2.6469296077
 H         6.0482905146        2.5901981406        3.3177384787
 H         6.9653585648        2.6117205581        1.8302668121
 H         7.5396986414        1.6568600057        3.0386649507
 H         7.1311301852       -0.0212756673        0.8017290954
 H         5.4404445845       -0.6999429814        0.5342762185
 H         5.7670652934        0.8964441303        0.0699686000
 H         2.9226336067        2.4501715574        5.1431367946
 H         3.8781000099        1.0217889710        4.7908710221
 H        -1.8701243442        3.2786315931        2.9408633274
 H        -1.3740102062        3.1919766743        4.5773003980
 H        -0.4299510866       -0.0924454008        5.5940779520
 H        -0.4364514998       -0.0287738941        3.8567549088
 H        -1.5978799094        0.9015845404        4.7384621772
 H         1.2398999573        1.7129080661        6.4806230917
 H         1.1337842010        3.2522381290        5.8276665275
 H        -0.4294134395        2.5872557104        6.2880273211
 H        -0.7643416098        5.4228873095        2.4556953690
 H        -1.6784850510        5.6911460392        3.7949984284
 H         1.5078662251        9.7661267017        3.8588471037
 H        -0.2989943941       10.2335374230        3.6008278676
 H         0.2680596664        9.6876311259        5.1118786203
 H        -0.9867654753        6.0686195992        6.3403251039
 H        -1.7183490312        7.0096629403        5.0000538730
 H        -0.9383717033        7.9202302579        6.3685355781
 H         2.6485558832        7.1279376557        5.2707184050
 H         1.7834697715        8.4059897503        6.0223085431
 H         1.6470140483        6.7181736502        6.6269883730
 Na        1.1927521662        0.3854687592        1.5323969467
