155

 C        -8.0896110001       -0.7539306271       -5.5183926842
 C        -7.4650469187       -0.8610650739       -4.0849559544
 C        -7.9037052659       -2.0472221581       -3.0572176028
 C        -6.8746398904       -3.1741903935       -3.5179878752
 C        -5.4380147292       -2.8819285560       -3.7573810951
 C        -7.7111689270       -1.5420516587       -1.6114980533
 C        -9.3126409332       -2.6075081812       -3.2857538772
 O        -6.6200969979       -0.0541237896       -3.8095494874
 O        -7.3410226607       -4.2434743898       -3.9187545450
 C        -4.8201431086       -3.8890235002       -4.7832212774
 C        -3.2723780211       -4.1013558086       -4.7250093644
 C        -2.5643940394       -4.8693123732       -6.0210312312
 C        -2.1292524728       -3.7308874690       -6.9203926708
 C        -0.9529417837       -2.8618358980       -6.5128001267
 O        -2.5785965930       -3.8674695469       -3.7794951665
 O        -2.6154185341       -3.5309785688       -8.0259102041
 C        -1.4123126610       -5.7221418096       -5.4516362840
 C        -3.5286115466       -5.8492509759       -6.7517194072
 C        -0.8995670050       -1.7059271609       -7.5603913107
 C        -0.0709203989       -0.4898145440       -7.0811198762
 C         1.4290471387       -0.6617721206       -6.3754793965
 C         1.1912515722       -1.3384133022       -4.9348499862
 C         1.0608470312       -0.4156191263       -3.7120996822
 C         2.3654580585       -1.6014304522       -7.2107409612
 C         2.1008572258        0.7108381333       -6.2902329734
 O        -0.4325713444        0.6733314546       -7.2796779633
 O         1.3463069670       -2.5162308813       -4.7452730089
 C         0.0267814986       -1.1132389846       -2.8292272155
 C        -0.1550993935       -0.4550695311       -1.4654815516
 C        -1.4775071700       -0.7799632577       -0.6123548206
 C        -1.2923146440       -1.3927238755        0.7830362198
 C        -0.8561063576       -2.8159941146        0.9989181757
 O         0.5955410450        0.3830767431       -0.9857750211
 O        -1.3528557201       -0.6720604985        1.7752546827
 C        -2.0631716561        0.5540458672       -0.3249630826
 C        -2.4998802780       -1.5644574720       -1.4165809727
 C        -0.0328955487       -3.0077286470        2.2500568947
 C         1.4446746639       -2.6004150198        2.1735229201
 C         2.5290460675       -3.6379226546        2.6545855130
 C         3.9792637168       -2.9532610619        2.5722109612
 C         4.3315855846       -1.8002171293        3.5859924604
 C         2.2792935360       -3.9740852403        4.1331256775
 C         2.5313521553       -5.0152605791        1.8308941545
 O         1.8424914466       -1.5311615881        1.7258854872
 O         4.7907388380       -3.3189229217        1.7530804280
 C         5.7558982346       -1.2768897936        3.4292788393
 C         5.8729490877        0.2254334154        3.4675753985
 C         5.4075938268        1.1046059218        2.1367389583
 C         3.9089152607        1.4580109024        2.2609291057
 C         3.4860828381        2.4340005221        3.3835916576
 O         6.2470781789        0.7499569073        4.4579998173
 O         3.1855740630        1.1755267244        1.3256562211
 C         6.2103798429        2.4185668381        2.0236437648
 C         5.5086687070        0.1172870646        0.9087468614
 C         2.8658829584        1.8441169850        4.6573689857
 C         1.6209140868        1.1647163816        4.3817867533
 C         0.2419807147        1.5837119174        4.9396767904
 C        -0.6117223451        2.4271650252        3.8996280155
 C        -1.6532620744        3.4839793177        4.4412550623
 C        -0.6358997466        0.3204644286        5.1215405948
 C         0.4939002201        2.4073506275        6.3433965087
 O         1.7696929738        0.0641172295        3.8449226901
 O        -0.4014688204        2.1793608893        2.6961905365
 C        -1.1600672908        4.9356504567        4.0359697626
 C         0.2406593991        5.3013220941        4.6778289987
 C         0.2481647028        6.4623630523        5.8155388913
 C        -0.0548755385        7.7884542996        5.0502779354
 C        -0.0073706146        9.1055607815        5.9007562367
 O         1.2626134711        4.8818112373        4.1981841033
 O        -0.4404757941        7.7527205196        3.8647228181
 C        -1.0283499498        6.1673359032        6.8038044972
 C         1.4864600426        6.4713414092        6.7592375983
 H        -9.0177025087       -1.3571357387       -5.6136558598
 H        -8.1683961090        0.1807077914       -5.9435570512
 H        -7.3387661063       -1.1469918711       -6.3048725653
 H        -5.4211872034       -1.8505982705       -4.1740465234
 H        -4.9104875051       -2.8902055283       -2.7436331393
 H        -8.4348514951       -0.8323771611       -1.4033114127
 H        -6.8101137830       -1.0918411595       -1.3789663165
 H        -7.9753812498       -2.3580697514       -0.9225046581
 H        -9.5152217881       -3.1995260150       -4.2322418722
 H        -9.4011567460       -3.2563148150       -2.4410929139
 H       -10.0214719303       -1.8542673700       -3.3818613226
 H        -5.3761798624       -4.8192322309       -4.6308765335
 H        -5.1115040265       -3.5974023027       -5.7722574828
 H        -1.1759697575       -2.4230618113       -5.5621145513
 H        -0.1161120588       -3.5463401176       -6.3669835240
 H        -0.8089827541       -6.0406920444       -6.2526424864
 H        -1.7122364013       -6.4809875208       -4.7823401713
 H        -0.7942599612       -5.0050058708       -4.8073466828
 H        -3.8461356648       -6.5596399458       -6.0409668973
 H        -4.3351846162       -5.1747315991       -7.1102359679
 H        -2.9902466603       -6.2343819933       -7.6307306269
 H        -1.8826072214       -1.2633889843       -7.7775695171
 H        -0.4691951985       -1.9302439894       -8.5386622320
 H         2.0897404605       -0.3223528114       -3.2422740552
 H         0.7764111946        0.5733888906       -4.0195590130
 H         2.1210850935       -1.6361521981       -8.3109035379
 H         2.1742690682       -2.6288523471       -6.8178237772
 H         3.4072423671       -1.2945106171       -7.0333822118
 H         2.8994131794        0.8484063436       -5.5616348364
 H         2.5164834504        0.9467302136       -7.1858489919
 H         1.3545199036        1.4965068176       -6.0594696742
 H        -0.8823053282       -1.1133509427       -3.4289550852
 H         0.2411189774       -2.1778030718       -2.5422778219
 H        -1.7729694409       -3.3492805036        1.3280570638
 H        -0.4748341081       -3.3434436515        0.0935808234
 H        -1.2252458430        1.2703945851       -0.0098467062
 H        -2.8204187446        0.5095260722        0.3750508208
 H        -2.5947389954        0.9284391636       -1.2174107100
 H        -3.3481761359       -1.9617847839       -0.7982909382
 H        -2.9364244210       -0.7802964705       -1.9980685494
 H        -2.0726676946       -2.4407812706       -1.8628086545
 H        -0.0137208250       -4.0623982574        2.5236319253
 H        -0.5107682160       -2.4061527604        3.0251701738
 H         3.6861880498       -0.8850638924        3.4041208641
 H         4.0809490775       -2.0683717480        4.5796540648
 H         1.2637880628       -4.2602065919        4.4130495165
 H         2.4814764617       -2.9937019967        4.6419946279
 H         2.9105420619       -4.8202307712        4.5965741130
 H         1.5752930786       -5.5068660741        1.8124605147
 H         2.7954868502       -4.9536958668        0.8106134424
 H         3.2805211055       -5.6809361927        2.2741918692
 H         6.3284521659       -1.7133099279        4.2597050368
 H         6.1251059793       -1.6470951549        2.4497641647
 H         4.4038835756        2.8536874534        3.8333811210
 H         2.8876526215        3.2608809812        2.9104926697
 H         6.5683268039        2.6112505491        3.0289295387
 H         5.5648633552        3.2737181116        1.6546917178
 H         7.1188098832        2.2441689203        1.5381565332
 H         6.5010021402       -0.3399961860        0.9859197652
 H         4.7377700340       -0.6572979735        1.1150140299
 H         5.2716687086        0.6102452280       -0.0310082078
 H         2.8093637940        2.6531604399        5.4435523087
 H         3.5041643590        1.1228666456        5.1029899695
 H        -2.6496489292        3.2753883159        4.0340229432
 H        -1.6228609132        3.5853231639        5.4806870778
 H         0.0262021156       -0.5568121816        4.8223902410
 H        -1.5387184344        0.2328955896        4.5163222002
 H        -0.8376643432        0.1313597558        6.1209369775
 H         1.1934158039        1.7764781947        6.8215913648
 H         0.7890867840        3.4110967798        6.0892394050
 H        -0.3631495823        2.2272148137        7.0031801974
 H        -1.0505233486        4.9417358090        2.9474468872
 H        -1.9069142517        5.6508825658        4.4368015117
 H         1.0431171516        9.3761597922        5.8663964960
 H        -0.5758886627        9.8973255550        5.3716786704
 H        -0.2848327429        8.9260680124        6.9149892212
 H        -1.1645605780        5.0274146688        6.9041426562
 H        -1.9162446238        6.5631125335        6.2257433878
 H        -0.8907592472        6.7326521859        7.7219615552
 H         2.4385810496        6.3962081184        6.2213841871
 H         1.6473082015        7.3753546447        7.4186219742
 H         1.5502397542        5.6260069019        7.3708957786
 Na        0.7041959176        0.6195091728        1.5093267534
