155

 C        -7.0993459602       -1.3529650606       -5.6079227706
 C        -7.1413621647       -1.0002507492       -4.1187915426
 C        -7.3475004996       -2.1162089108       -3.1115935137
 C        -6.6838684964       -3.5276420891       -3.6040647230
 C        -5.1724887735       -3.7053154153       -3.6593175249
 C        -6.8549849206       -1.5772184954       -1.7748539958
 C        -8.8978104899       -2.5115760868       -3.0179694101
 O        -6.9033420432        0.1257038519       -3.7364391073
 O        -7.3610399442       -4.4136511689       -4.1291755037
 C        -4.6966970629       -4.4881368750       -4.9078503910
 C        -3.2132839403       -4.2097023793       -5.2729511606
 C        -2.4208010447       -4.9471854201       -6.5052681983
 C        -1.9429297462       -3.7888476425       -7.4889012120
 C        -0.7433012045       -2.8714612141       -7.0214647923
 O        -2.5859265194       -3.3756151924       -4.6373407516
 O        -2.5745379361       -3.5242968809       -8.4961800541
 C        -1.1305063197       -5.5426747905       -5.9733702815
 C        -3.4137812990       -5.9240348226       -7.2977038645
 C        -0.4990737990       -1.6461816775       -7.8857088434
 C        -0.2057864069       -0.5163563290       -6.8484681934
 C         1.2878866913       -0.5067266557       -6.3450631500
 C         1.1305775857       -1.2119809663       -5.0500181656
 C         0.2363180449       -0.5102744661       -3.9701339160
 C         2.3613994316       -1.3219529308       -7.1219503677
 C         1.5086458226        1.0527770086       -6.2150755136
 O        -1.0929302045        0.2592362906       -6.5169318388
 O         1.6486309912       -2.2641782126       -4.7474788051
 C         0.4947531150       -1.3157689332       -2.6445619850
 C         0.0271513479       -0.5597595755       -1.3991301331
 C        -1.5130039219       -0.9314769408       -0.8898655371
 C        -1.3564635218       -1.4860797345        0.5361775523
 C        -0.9702467334       -2.9298525512        0.7361971932
 O         0.7529287367        0.3708131436       -0.9836382001
 O        -1.2639909742       -0.8023450655        1.5835276967
 C        -2.3466366156        0.3394429318       -0.7735335245
 C        -2.2542482316       -1.9041649131       -1.7655166116
 C         0.0666161884       -3.1515848229        1.8786355084
 C         1.5864044626       -2.7642577994        1.7355443568
 C         2.5281594344       -3.4884352396        2.7913446365
 C         3.9694198466       -2.8715474814        2.8766933335
 C         4.0123967860       -1.3922323275        3.1179813015
 C         1.8657648877       -3.5978903956        4.1611851729
 C         2.6259740479       -4.9217686800        2.1324659630
 O         1.8986298508       -1.8115855656        1.0617525053
 O         4.9397890402       -3.5610819829        2.6085238607
 C         5.4870809521       -0.9321019260        3.4603626664
 C         5.4995779896        0.5956470504        3.3587801356
 C         5.2574994923        1.5298623037        2.1135922243
 C         3.6892785365        1.8594577878        2.1863822706
 C         3.1593097116        2.6987211399        3.3563979104
 O         5.7851704669        1.1714658468        4.4016916611
 O         2.8755651751        1.5665767303        1.3027007753
 C         6.1036210896        2.7982079600        2.2165191314
 C         5.5865887021        0.6472951774        0.8397328871
 C         2.7659928687        2.0343737335        4.7068235859
 C         1.5282246279        1.1308546630        4.5803021334
 C         0.1780280136        1.5076462934        5.0905879224
 C        -0.4609488096        2.5665464268        4.1071765257
 C        -1.5654698780        3.4705181263        4.6498683341
 C        -0.8926150759        0.2475119230        5.0876168280
 C         0.2636146200        2.0232820959        6.5334779159
 O         1.5197348421        0.1935407093        3.7903327061
 O        -0.1402568483        2.6309943961        2.9380754907
 C        -1.2256436594        4.9740013130        4.4949429970
 C         0.1053218046        5.2075345549        5.2023268657
 C         0.2759404330        6.2939126904        6.1923483500
 C        -0.2503611878        7.7369947207        5.7355805449
 C        -0.0632809276        8.9343217482        6.7190198257
 O         0.9959460776        4.3889598604        5.1059425465
 O        -0.8287052181        7.9263530516        4.6619532407
 C        -0.8461355370        5.8848441544        7.3042857138
 C         1.7293026257        6.3079119104        6.7038660331
 H        -8.1355584994       -1.7016508024       -5.9641394577
 H        -6.8865045699       -0.5709203660       -6.2811002444
 H        -6.6885720073       -2.2823555939       -5.8218586822
 H        -4.6916451126       -2.6997418319       -3.7616239180
 H        -4.6199888814       -4.0896203210       -2.8217567883
 H        -7.4151537662       -0.6921402086       -1.5261667196
 H        -5.8399713473       -1.3564140671       -1.8609689431
 H        -6.9442486813       -2.2781312767       -1.0012718366
 H        -9.2018333174       -2.6593413133       -4.0778319292
 H        -9.0915979395       -3.3670270611       -2.4861736415
 H        -9.3683364170       -1.6916091908       -2.5325826592
 H        -4.7235477563       -5.5805225242       -4.7775709839
 H        -5.2948264983       -4.1689906982       -5.8035564393
 H        -0.9700120920       -2.7295234054       -5.9363039814
 H         0.2046453756       -3.3812324866       -7.0648473757
 H        -0.4467708399       -5.5911330526       -6.8069854630
 H        -1.2543788063       -6.5598768689       -5.6588252317
 H        -0.8178985632       -4.8637657367       -5.2365121937
 H        -3.8933998805       -6.6056023291       -6.6176814117
 H        -4.0341256537       -5.1921323778       -7.7877382980
 H        -2.7684847937       -6.4203839807       -8.0947455275
 H        -1.2593786918       -1.5399227816       -8.6846682446
 H         0.4430107946       -1.7025178485       -8.4855689472
 H         0.7298259677        0.4214860870       -3.7862985229
 H        -0.7765789328       -0.2111651099       -4.2355626180
 H         2.2953400476       -1.0276899030       -8.1032661475
 H         2.2055165850       -2.4303041776       -7.0032120753
 H         3.3871826190       -1.1240065646       -6.8003779796
 H         2.1571703874        1.2845470194       -5.4283173469
 H         1.8549231911        1.5844318978       -7.0520838688
 H         0.5415982752        1.5208215228       -6.0459846736
 H         0.0481994897       -2.3251974937       -2.7319662893
 H         1.6164993864       -1.3793128384       -2.5896667517
 H        -1.8176293301       -3.3087948147        1.2295506310
 H        -0.7207442294       -3.5600317148       -0.0926244649
 H        -1.7024329827        1.1463769901       -0.4041927491
 H        -3.0706242952        0.3037344341        0.0874492926
 H        -2.7100178064        0.5199472727       -1.7879636484
 H        -3.0392792361       -2.1615709216       -1.0628329180
 H        -2.4862869920       -1.4967292612       -2.7448666611
 H        -1.5381655693       -2.8048135406       -1.9455659312
 H         0.1049122836       -4.2027410294        2.2663901834
 H        -0.2282593872       -2.6265808172        2.8305767340
 H         3.6349163114       -0.8565006906        2.2951771784
 H         3.4927219800       -0.9653188361        3.9588288405
 H         0.7981754312       -3.8855095782        4.1803825524
 H         1.7955482093       -2.6690944583        4.7632117238
 H         2.3599034101       -4.3372503517        4.7316916099
 H         1.7098563422       -5.3980152964        2.2620715993
 H         2.8797928910       -4.9248360485        1.0454844190
 H         3.3641404297       -5.5791349776        2.6055733486
 H         5.6210647357       -1.3453698201        4.4446078197
 H         6.2342916817       -1.4599396000        2.9030627085
 H         3.9902600438        3.4007230497        3.5429296479
 H         2.2699448944        3.2683440494        3.0637536697
 H         5.5726254827        3.4883891418        2.8072484520
 H         6.3118230041        3.1835311277        1.2617818599
 H         7.1007498917        2.5304741223        2.6355961308
 H         6.6106043086        0.4258903971        0.9302193407
 H         4.9030784062       -0.2492764386        0.7420275355
 H         5.4613955278        1.2096633093       -0.1034709619
 H         2.6984255909        2.7591411318        5.5185001365
 H         3.6544233336        1.3725983640        4.9897056036
 H        -2.4792651505        3.3590737542        4.0549296323
 H        -1.7535303762        3.1004980052        5.6874559592
 H        -1.6456075794        0.4235728769        5.7661095784
 H        -0.4176730003       -0.7043020570        5.3496709723
 H        -1.3835697145        0.0561242844        4.1075143641
 H         0.8090690701        1.2765475126        7.1070157483
 H         0.8679260466        2.9737717738        6.5682220516
 H        -0.6844214396        2.2765195630        6.7479438198
 H        -1.0103997489        5.0537882963        3.3963693936
 H        -2.0318692487        5.6416677346        4.7099614658
 H         0.9107209434        9.3289916898        6.6796737127
 H        -0.7101264034        9.7019896982        6.4330300095
 H        -0.3696847303        8.4702559385        7.7064115562
 H        -0.5502620564        4.8204985248        7.5086380173
 H        -1.8883347535        5.9362193059        6.9765914175
 H        -0.6260893288        6.3920768765        8.1459191164
 H         2.5045428882        6.7200899192        6.0651660304
 H         1.8749018702        6.9104088004        7.5433069866
 H         2.0398810497        5.2879418397        7.0497137379
 Na        0.7776107882        0.5621587883        1.5272494295
