155

 C        -7.3167549256       -0.7468836222       -5.2933818676
 C        -6.4828765711       -1.2961514720       -4.0970976015
 C        -6.7763366299       -2.7381510617       -3.4195890837
 C        -6.1279066137       -3.8213853941       -4.3017928473
 C        -4.5804293219       -3.6656329066       -4.4794591083
 C        -6.0576056089       -2.7760888483       -2.0621097322
 C        -8.2515605668       -3.0716614979       -3.2707940175
 O        -5.4820627036       -0.6843217001       -3.7653656805
 O        -6.7592116242       -4.5910817793       -4.9824584984
 C        -4.0344160963       -4.5126682321       -5.7138782391
 C        -2.5246819105       -4.7846155741       -5.7593102506
 C        -1.9951297613       -5.0953014301       -7.2281072339
 C        -1.7135910969       -3.8936359152       -8.1444485128
 C        -0.6293384383       -2.8855991462       -7.6007434819
 O        -1.7629026321       -4.8915444172       -4.8273334573
 O        -2.3750870329       -3.6034751485       -9.1679871772
 C        -0.6559177909       -5.9575902907       -7.2257312973
 C        -3.0942287404       -6.0447377400       -7.8372537913
 C        -1.0213725763       -1.3386785021       -7.9179309376
 C        -0.7385917553       -0.3577550378       -6.7770685109
 C         0.8559402429        0.2076351123       -6.4580805948
 C         1.2575166697       -0.5552415587       -5.1528646416
 C         0.4946701872       -0.1196862269       -3.9249644426
 C         1.7397606364       -0.4235955527       -7.6033632424
 C         0.7547252436        1.7119804275       -6.5405983967
 O        -1.5385387921        0.0974586772       -6.0091090164
 O         1.9496928767       -1.5690838850       -5.2782173007
 C         1.0353081120       -0.8208304320       -2.6348888758
 C         0.3321428591       -0.5252605671       -1.3082881555
 C        -1.1204107723       -1.0538962306       -0.9730499768
 C        -0.9904507077       -1.5759779896        0.5340411444
 C        -0.8524729576       -3.1283682345        0.7114197807
 O         0.9484822623        0.2049108696       -0.5497221027
 O        -0.9572892260       -0.8469946320        1.4838076451
 C        -2.1058946780        0.1087852790       -1.0668052349
 C        -1.7098274174       -2.2609682732       -1.8507710477
 C         0.0315748793       -3.4782620132        1.9642509403
 C         1.4751965761       -2.9028876643        1.9715174705
 C         2.5977632426       -3.3522217186        2.9665530165
 C         4.0010983199       -2.6526775827        2.5667060894
 C         4.1303192354       -1.0783977381        2.2498841612
 C         2.1524186234       -3.1086138191        4.3974993474
 C         2.7918962530       -4.8801304493        2.8019032783
 O         1.7918884230       -2.0981360264        1.1137670470
 O         4.9496597779       -3.3809915233        2.4189446147
 C         5.4654006520       -0.4716207514        2.6029469522
 C         5.2599485717        0.8396329798        3.3474451833
 C         4.7292363297        2.1912058060        2.5222774713
 C         3.1867417091        2.2592198198        2.6154613987
 C         2.6496996244        2.7797278487        3.9223973173
 O         5.5071502758        1.0592231768        4.5133738571
 O         2.4258850819        2.0567287883        1.6908152253
 C         5.4738457597        3.4107202953        3.1496053165
 C         5.1416569231        2.1191335717        1.1114754057
 C         2.3762451655        1.6550128747        4.9615708147
 C         1.0579803266        0.8789669412        4.6130132394
 C        -0.4064571559        1.3928291898        5.0729042707
 C        -0.8597774142        2.5909946825        4.3068626567
 C        -1.9884828212        3.5823906483        4.9900394633
 C        -1.3417583365        0.2178124306        4.7588194161
 C        -0.3701043119        1.6288234012        6.5583245065
 O         1.0303223013       -0.0322805419        3.7859073592
 O        -0.4099587046        2.8257818839        3.1733572296
 C        -1.4367675451        5.0242962065        5.0323437970
 C        -0.1115638867        5.0639263247        5.7748407499
 C         0.1128898614        6.1396345875        6.8645023801
 C        -0.4764726519        7.5073147873        6.6299037655
 C        -0.2192010119        8.7402915404        7.5751219504
 O         0.6742555858        4.0974078481        5.7599386710
 O        -1.3781999333        7.6953913397        5.8014167307
 C        -0.5454657797        5.6027472803        8.1667063960
 C         1.7049237955        6.1829209224        7.0949804249
 H        -7.0193621999       -1.1826492038       -6.1780233196
 H        -8.4327850251       -0.8388493191       -5.2311724238
 H        -7.1069687597        0.3865047342       -5.3045104887
 H        -4.4047377684       -2.5911174445       -4.7678517171
 H        -3.9468996957       -3.8777154507       -3.6389130324
 H        -6.4251558176       -1.8921683710       -1.5716934804
 H        -4.9805907101       -2.7803518746       -2.1099715142
 H        -6.3854887229       -3.6346532995       -1.4096588765
 H        -8.5944301147       -3.5960347219       -4.1177674322
 H        -8.2429558281       -3.7043931068       -2.3424942397
 H        -8.8576170062       -2.1452605908       -3.3064741760
 H        -4.5430713824       -5.4700130143       -5.7990306021
 H        -4.2980765159       -4.0682054057       -6.6495762873
 H        -0.4656125182       -3.0531214606       -6.4976243919
 H         0.2655341921       -3.1104895703       -8.1421293061
 H        -0.3187287925       -6.0777926431       -8.2454733593
 H        -0.8858285720       -6.9569364043       -6.8250867837
 H         0.0520414960       -5.4085782806       -6.5205178354
 H        -3.1772589191       -6.9549998150       -7.2641674226
 H        -4.0901477074       -5.5467370485       -7.8765842366
 H        -2.8601044149       -6.1494795880       -8.8928495235
 H        -2.0577037354       -1.5215815833       -7.9846017322
 H        -0.6996416548       -1.0424351418       -8.8966993937
 H         0.6502229426        0.9792972517       -3.7207114334
 H        -0.5625066077       -0.2303741241       -4.1602979855
 H         1.4818226347       -0.3378526761       -8.6778941141
 H         1.8108407501       -1.4309054908       -7.4169828253
 H         2.7436095804       -0.1068352313       -7.4876433577
 H         1.7439929237        2.2585891075       -6.6580812986
 H         0.0417627064        2.0046024763       -7.3979366043
 H         0.2127608576        1.9825496388       -5.6613137505
 H         1.0818166110       -1.8686450436       -2.8048313493
 H         2.0759267053       -0.4183209158       -2.4337677516
 H        -1.8453165837       -3.5930531862        0.8087752362
 H        -0.4024741454       -3.6726574994       -0.1936571648
 H        -1.8065836966        0.7056582692       -0.1474133217
 H        -3.1095165291       -0.2522523101       -1.0520505671
 H        -2.0594817095        0.6683670837       -1.9967447391
 H        -2.4020006973       -2.7863152094       -1.1816323525
 H        -2.1912276551       -1.9193425277       -2.7959724075
 H        -1.0853306402       -3.0540169147       -2.0415305775
 H         0.2057879284       -4.5295633565        2.1276267255
 H        -0.4663575379       -3.0485910898        2.7935778091
 H         3.7462801377       -0.8224173425        1.2324431563
 H         3.3575257586       -0.5874656010        2.8865838311
 H         1.2052171446       -3.3670779537        4.6798898218
 H         2.1368420052       -2.0676987532        4.5836588708
 H         2.7983960323       -3.5927758020        5.1430352550
 H         1.8955341011       -5.4325987154        3.0910061765
 H         2.8969943032       -5.1381145026        1.7605774520
 H         3.7060319651       -5.2203040031        3.3618382059
 H         5.9062540739       -1.2963385704        3.2045508726
 H         6.1479186097       -0.2831688091        1.7322636011
 H         3.2890545815        3.5550396537        4.3199549133
 H         1.6305405560        3.2231319297        3.6886842412
 H         5.4656509280        3.3130785663        4.2258936074
 H         5.0126071612        4.4002629510        2.9261802979
 H         6.4661195352        3.4141001649        2.8468905823
 H         6.0003021981        1.4540506478        0.8771120422
 H         4.3128557992        1.7150023530        0.5966739225
 H         5.3429066460        3.0007090423        0.5700672524
 H         2.3589832961        2.0024673990        6.0081221393
 H         3.1182061913        0.9026385619        4.9695944645
 H        -2.7602042180        3.5507391593        4.2174967428
 H        -2.2653603033        3.2054577199        5.9705610208
 H        -1.6051228353        0.0798139320        3.6653729816
 H        -2.2842571861        0.3467364567        5.3252388860
 H        -0.8667170549       -0.6303883230        5.1085169657
 H         0.4196824637        1.0002759844        7.0147756678
 H        -0.2073333332        2.6513440511        6.8040319038
 H        -1.4066067089        1.3125101935        7.0337143153
 H        -1.2744744019        5.4363614950        3.9879204709
 H        -2.1745579393        5.6482079756        5.5647501220
 H         0.7636036263        9.1432331504        7.1730519262
 H        -1.1008365121        9.3767579087        7.5699709187
 H         0.0168739866        8.3636046743        8.5485314492
 H        -0.2570459513        4.6539211465        8.4633658625
 H        -1.5853397118        5.4079745304        7.8880499728
 H        -0.5777360716        6.2906016257        9.0475839509
 H         2.2538136939        6.5412291361        6.2172331384
 H         2.0008227037        6.9090775672        7.9335541548
 H         2.1231989292        5.2393344138        7.3529681566
 Na        0.1446416076        0.9305355029        1.6250290970
