155

 C        -6.4317657097       -0.7448097035       -3.4376414240
 C        -5.5801845894       -1.9162260113       -3.7553164359
 C        -6.2235101341       -3.4238251676       -3.7876150191
 C        -5.7784078202       -4.0059950030       -5.1846390074
 C        -4.2774778868       -4.3340990588       -5.3151594144
 C        -5.5431841824       -4.2183567938       -2.6047499096
 C        -7.7203524270       -3.6126879046       -3.6628905830
 O        -4.3649764010       -1.7959049047       -3.8733609201
 O        -6.5794394851       -4.2414840554       -6.0901424258
 C        -3.7494650651       -4.9550013305       -6.5787471818
 C        -2.3282920582       -5.5086761996       -6.4758267556
 C        -1.2475139029       -5.2835787299       -7.6720763388
 C        -1.3363567513       -3.7048240708       -7.8562332528
 C        -1.0620708482       -2.6663410693       -6.7128949521
 O        -2.0375391003       -5.9657438328       -5.3806799949
 O        -1.7733651913       -3.2923671003       -8.8655067206
 C         0.2188069089       -5.6450701097       -7.2233614600
 C        -1.6198402729       -5.8544676689       -9.0431599544
 C        -1.5482437990       -1.1878929210       -7.1801155573
 C        -1.0470736478       -0.1052452976       -6.1769230306
 C         0.4532307245        0.3869656142       -6.2131607687
 C         1.3156060571        0.0352953538       -4.9835308474
 C         0.8181566438        0.8507753346       -3.6458845699
 C         1.1895443223        0.1103326249       -7.5320241339
 C         0.0882103263        1.9734509463       -6.2217339526
 O        -1.8166510003        0.2547337488       -5.2777570797
 O         2.1305401974       -0.8630766672       -4.9565499290
 C         1.3745193210        0.1798253329       -2.3738441992
 C         0.4310823344        0.3142084473       -1.2369024266
 C        -0.7908317991       -0.6351312110       -1.0827696904
 C        -0.7377018655       -1.4687557044        0.2932045443
 C        -0.5973990935       -3.0564781207        0.4067569552
 O         0.7187640772        1.0492816829       -0.3054656050
 O        -0.7423019604       -0.9043583104        1.3497727553
 C        -1.9236319858        0.4877171882       -1.0513745296
 C        -0.9723353382       -1.6400143274       -2.2104746577
 C         0.2489693715       -3.4776034475        1.5834843087
 C         1.6766688138       -2.8874752521        1.3312676171
 C         2.8333421486       -3.5368060698        2.2122286886
 C         3.9893480778       -2.4030450532        2.0954054899
 C         3.7879303462       -1.0352723732        2.9124700767
 C         2.4416324273       -3.6604668089        3.6884200772
 C         3.1494887076       -4.9257615413        1.7139970088
 O         1.8764518037       -2.0813008654        0.4380309325
 O         4.9282454351       -2.4509558120        1.3450042579
 C         5.0174183306       -0.3493505361        2.6714259800
 C         5.2034441417        1.0455126814        3.3884530866
 C         4.5945276001        2.3265544502        2.6310077122
 C         3.0624015675        2.1949189822        2.9065040714
 C         2.5660935371        2.7408688258        4.2804718390
 O         5.6957201781        1.1172974744        4.4802525523
 O         2.2994582598        1.7903027883        2.0426258678
 C         5.1678129033        3.6166843415        3.2566978250
 C         4.8216073936        2.3489676207        1.0975614855
 C         1.8976928988        1.8700804359        5.2952940335
 C         0.7598207432        0.9428279005        4.6987994912
 C        -0.7311864966        1.0328766412        5.2174566453
 C        -1.3042829778        2.3353377529        4.5598665365
 C        -2.4762972901        3.1268388311        5.2178682472
 C        -1.6523204652       -0.1787285537        4.7230284761
 C        -0.6500438978        1.0393058772        6.8269338546
 O         0.9085709466        0.1984000649        3.7863311049
 O        -0.9739849752        2.7133572576        3.4168574706
 C        -2.2965106468        4.5729026791        5.7921958033
 C        -0.8914917695        4.7175598399        6.4161370855
 C        -0.5497748482        5.8878794027        7.3837552980
 C        -0.7695084009        7.2991198295        6.6578278533
 C        -0.5466440744        8.6137350687        7.5406525485
 O        -0.0461117193        3.9266638882        6.0907028016
 O        -1.1903676332        7.4109306117        5.5428230867
 C        -1.4727289852        5.8293750954        8.6123893684
 C         0.9525481850        5.8123412691        7.8410492683
 H        -5.9864013273       -0.3613084964       -2.4827053533
 H        -6.5780135990       -0.0042436488       -4.1660418591
 H        -7.4702124002       -0.9476653889       -2.9695272280
 H        -3.6616535967       -3.4897981759       -4.9443676493
 H        -4.1469817845       -5.0952289826       -4.5733418322
 H        -6.0781154801       -4.0993593687       -1.6184530662
 H        -4.5705966133       -3.6659753270       -2.2969485294
 H        -5.3769488490       -5.2537058012       -2.7988064732
 H        -8.2285422268       -3.1719767663       -4.5911502265
 H        -8.0580172528       -4.6281944091       -3.7336946195
 H        -8.1581848587       -3.2436137519       -2.7177291889
 H        -4.3470395633       -5.8541322550       -6.9885610143
 H        -3.7125522106       -4.2266562079       -7.3792187173
 H        -1.7470385032       -2.9441755019       -5.9002317955
 H        -0.0752374002       -2.7461986945       -6.3197829264
 H         1.0041507534       -5.3471760558       -7.9633280571
 H         0.2873641761       -6.7232109731       -7.0019428500
 H         0.5016750412       -5.0458814853       -6.4191944416
 H        -2.0919180672       -6.8590753966       -9.0155304222
 H        -2.3506589327       -5.2926646191       -9.5667758498
 H        -0.7875406446       -5.9891701728       -9.6608574936
 H        -2.6440431329       -1.1005921055       -7.4021213792
 H        -1.0344063350       -1.1659635165       -8.1414983765
 H         1.1118224280        1.9292148316       -3.7200677126
 H        -0.2505490746        0.7365649530       -3.6668589589
 H         0.3937478353        0.0308325548       -8.2650425185
 H         1.7310774938       -0.9009031859       -7.5492759779
 H         1.9097898062        0.9480632759       -7.8092178532
 H         0.9399635708        2.5255075743       -5.8919906986
 H        -0.1783667206        2.2885585842       -7.1919057919
 H        -0.7921011079        2.1088483453       -5.4819089821
 H         1.7141048382       -0.8853525118       -2.5333975730
 H         2.3133761154        0.6159907215       -2.1371470888
 H        -1.5687632705       -3.4640701469        0.2937255922
 H        -0.0319728614       -3.4378347721       -0.4507947028
 H        -1.8514798507        1.1254793964       -0.2430662120
 H        -2.8524295323       -0.1446412394       -0.9705867321
 H        -2.0377743262        1.0759758546       -1.9468000113
 H        -1.9652278592       -2.0728831000       -2.2021271125
 H        -0.8153648903       -1.3326907879       -3.2410559671
 H        -0.4003173830       -2.6325423166       -2.1469409457
 H         0.1701436555       -4.6103483603        1.7221658700
 H        -0.1527882760       -2.9948639301        2.5413311245
 H         2.9281078553       -0.4597794985        2.4686311745
 H         3.6474006719       -1.3996028301        3.8891852619
 H         1.5399714733       -4.3956065237        3.7154503447
 H         2.2697367752       -2.6635036388        4.1829605293
 H         3.2199087898       -4.2074401959        4.1864578283
 H         2.2310135759       -5.5537573448        1.9538266195
 H         3.3533883342       -4.8601270325        0.6566078336
 H         3.8785003703       -5.3395652954        2.3466300018
 H         5.8894796795       -0.8399493284        3.0583349120
 H         5.2215575792       -0.3622853338        1.6334070376
 H         3.3295202180        3.2924761372        4.8532221198
 H         1.8093544560        3.4827200992        3.9863195305
 H         4.9341240314        3.7622045606        4.3406278431
 H         4.7492801777        4.4763732322        2.7874953022
 H         6.3118549364        3.5274179701        3.3209166470
 H         5.8229543421        2.6419327782        0.8544980553
 H         4.7824731173        1.3515880845        0.6488899326
 H         4.0465905038        2.9826977066        0.5873326837
 H         1.4239746889        2.6247246801        5.9988710378
 H         2.6724681003        1.3338505898        5.8626323816
 H        -3.2121075962        3.0315586135        4.3746868917
 H        -3.0492341356        2.5318259499        5.9538446502
 H        -1.6661198653       -0.3070345595        3.6483930973
 H        -2.6512132344        0.1077513957        5.0412620884
 H        -1.3867479622       -1.1665988161        5.3074447432
 H         0.2217150798        0.5596736740        7.2270949813
 H        -0.6628053737        2.0605176585        7.3675094081
 H        -1.4239811979        0.4412320953        7.2751695202
 H        -2.3858029948        5.2671817557        4.9784079937
 H        -3.1658625323        4.8372171085        6.4320798466
 H         0.4292496328        8.9054689397        7.2881735571
 H        -1.2495653354        9.4185667923        7.2343682840
 H        -0.6726767188        8.3861669093        8.5833491936
 H        -1.2756420586        4.9474198388        9.3008214029
 H        -2.5681416614        5.9395926900        8.4798651184
 H        -1.0850959687        6.6651244882        9.2657620942
 H         1.6705541741        6.1822322494        7.0938476308
 H         1.0393297119        6.2356163837        8.7983388163
 H         1.2295204825        4.7279647548        7.8124604827
 Na       -0.0942712042        1.2739332299        1.9397246626
