155

 C         3.8074458132       -9.1153387745        0.3725201660
 C         4.7865803358       -8.2101481121        1.2283552491
 C         4.7842223556       -6.5142274757        0.7834102029
 C         3.4382622809       -5.9313633518        1.2338544174
 C         2.9084296847       -6.3644302012        2.6207084839
 C         5.8979645922       -5.9233689791        1.6816708186
 C         5.0157100760       -6.3633537134       -0.6615235991
 O         5.3623736714       -8.5885069782        2.1881013669
 O         2.8417827254       -4.9969666417        0.6952419657
 C         1.9824932403       -5.3217392838        3.1728628556
 C         2.4275871127       -3.9317999268        3.3751933899
 C         1.3980854733       -2.8918834869        3.8449630027
 C         2.0757079990       -1.5395241291        4.2904257370
 C         3.0923464278       -0.9479121746        3.3503541222
 O         3.6136320897       -3.5987109358        3.3261039476
 O         1.6712685218       -1.0264372248        5.3253358694
 C         0.3844044369       -2.6427116150        2.6866536653
 C         0.5545556954       -3.5152097164        5.1003397634
 C         3.0334275858        0.6357305700        3.3894935164
 C         1.9454336463        1.2980956296        2.5106485459
 C         1.5026306617        2.8425368949        2.8038512494
 C         2.2927862187        3.7723068409        1.7800757413
 C         2.8897935393        5.1006973486        2.4797898144
 C        -0.0587005222        2.9316075196        2.4570815384
 C         1.8381099986        3.1228787214        4.2526981090
 O         1.4991538782        0.6953473945        1.5608791749
 O         2.1781968195        3.5977909949        0.5607617640
 C         3.9781782160        5.7282661483        1.6841138399
 C         5.1243425772        4.7132639275        1.4367333309
 C         6.3677220947        5.1233207342        0.6467652685
 C         5.9239289771        4.7516573975       -0.8833757617
 C         5.6778734509        3.3195488065       -1.1585376950
 O         4.9487922329        3.5393108970        1.7737297779
 O         6.0960384118        5.5790501357       -1.7566159635
 C         6.8780912550        6.5105911255        0.4657403742
 C         7.6905188715        4.2733097380        0.7747277050
 C         5.0037328499        3.1590394065       -2.5449893265
 C         3.7819201748        2.2470025104       -2.4520294205
 C         3.9436834399        0.6152708959       -2.8724444250
 C         2.5261461057       -0.0119504924       -2.8422085544
 C         1.7364703554       -0.1632280622       -4.1279356549
 C         4.5857597563        0.5454739739       -4.2628548654
 C         4.7326103411       -0.1865990654       -1.7949891911
 O         2.8194548588        2.6268469243       -1.8449748739
 O         1.9639150202       -0.2982136235       -1.7617952454
 C         0.2983132889       -0.6862918477       -3.8253842833
 C        -0.3722765930        0.4603079839       -3.0925333253
 C        -1.9069005661        0.3806427323       -2.6849111882
 C        -1.9500586738        1.0337475351       -1.1469056600
 C        -3.0731743408        0.5826310705       -0.1062448167
 O         0.1431023002        1.5328576247       -3.1090389118
 O        -1.1035345761        1.7985309858       -0.7581474618
 C        -2.6124863377        1.3370828732       -3.6645280890
 C        -2.5153522240       -1.0911001903       -2.7394067429
 C        -4.4398011580        1.2467765517       -0.3195373907
 C        -5.5921942889        0.3067975455        0.0664710616
 C        -7.0180939978        0.9964418943        0.2902027728
 C        -7.6520514050        1.2839805597       -1.3100258919
 C        -8.2676201320        0.0704857053       -2.0326671762
 C        -7.9776895142       -0.0166657962        0.8982560583
 C        -7.0108938989        2.3642824875        1.1022321910
 O        -5.4223771718       -0.8911625865        0.0544514942
 O        -7.5112276673        2.3893707593       -1.7552850526
 C        -9.1727905855        0.4037699323       -3.2510960533
 C       -10.3607351784       -0.6185473113       -3.3088723206
 C       -11.7508091619       -0.3221256167       -3.7622078701
 C       -12.5816786891       -0.3735920788       -2.3163581774
 C       -12.5443988475       -1.6465754312       -1.4803123088
 O       -10.1711992301       -1.7742638079       -2.9735339739
 O       -13.0836546489        0.6198912422       -1.9217225264
 C       -11.9413276209        1.0536820468       -4.3064537001
 C       -12.2137015366       -1.5013857937       -4.6767919639
 H         3.3242961370       -9.8776196289        1.0603272304
 H         3.2173708777       -8.6318616848       -0.3097480406
 H         4.4518046244       -9.7631187253       -0.2811144616
 H         2.2393947062       -7.2054431202        2.4957724002
 H         3.6187395659       -6.4652625017        3.3628017891
 H         6.9829498945       -6.2395126779        1.4234216731
 H         5.7278017610       -6.2151816151        2.7293619911
 H         5.8951534312       -4.8357838961        1.7534990350
 H         4.1419535426       -5.9989397159       -1.2065294649
 H         5.9372989055       -5.8335687220       -0.9634240268
 H         5.1518098689       -7.3252826750       -1.1847763505
 H         1.0022295429       -5.4587410678        2.7050826329
 H         1.7616129924       -5.6629796593        4.1445677471
 H         4.0935803421       -1.4222379759        3.5087175010
 H         2.6393499089       -1.3339807383        2.4282810655
 H        -0.2793120129       -3.4671805334        2.6494813741
 H         0.8753217509       -2.6280912611        1.6933738361
 H        -0.1272533842       -1.7121427068        2.8803530284
 H         0.9085294519       -3.1577504557        6.1027485701
 H        -0.4479905722       -3.1195106580        5.0088192101
 H         0.3925939231       -4.5903835317        5.0742024643
 H         3.9393040437        1.1619204871        3.0216888928
 H         2.9585086616        0.7536255037        4.5536918079
 H         2.1164153002        5.8284456792        2.7830244013
 H         3.3522998695        4.7444622429        3.4304214527
 H        -0.5851714871        3.7379982554        3.0275820862
 H        -0.6520510624        2.0164188708        2.6892780321
 H        -0.2737696741        3.2053583797        1.4260657497
 H         1.2702992712        2.4537486056        4.9262913967
 H         2.8794532355        2.9993257445        4.5187900603
 H         1.4883091407        4.0618460135        4.6139522005
 H         3.6399551920        6.1531538507        0.7307675290
 H         4.3351583777        6.5633326474        2.2939920504
 H         6.6839597789        2.8259358162       -1.1330877426
 H         5.1421097276        2.9942649758       -0.2822678404
 H         6.1957348939        7.2676272695        0.8502750281
 H         7.1057400227        6.8051369032       -0.6074805840
 H         7.7894131570        6.7231839598        1.0270583197
 H         8.3651309982        4.3708154304       -0.1001740612
 H         8.2888116167        4.4704568047        1.6493202205
 H         7.3803517884        3.2274316151        0.7402987248
 H         5.6751628272        2.6074321554       -3.1875001387
 H         4.6907705459        4.1609971372       -2.9152266991
 H         1.7548246290        0.7927311741       -4.6260665477
 H         2.3321856736       -0.8429841485       -4.6939443326
 H         5.5950423638        1.0499441451       -4.2858322557
 H         4.0338682319        1.0484123403       -5.0042807602
 H         4.8139279611       -0.4222571968       -4.5354536393
 H         5.6868914297        0.2896395092       -1.6591302142
 H         4.2546625214       -0.0149254354       -0.8768326112
 H         4.7686221455       -1.2192941733       -2.2485640100
 H        -0.2476818980       -0.9427604443       -4.7512378611
 H         0.1906007045       -1.5576198641       -3.1841022313
 H        -3.2127016806       -0.4669932367       -0.1288685410
 H        -2.6473555327        0.8991360693        0.8372132325
 H        -2.1151957236        2.3470127368       -3.6636869807
 H        -3.6377918579        1.4341067453       -3.4074762179
 H        -2.4526047938        1.0904013842       -4.7165429524
 H        -3.5323926991       -1.0031243811       -2.3933427034
 H        -2.3064048387       -1.5442827871       -3.7546578382
 H        -2.0651820112       -1.8000467485       -2.1266407196
 H        -4.5692046182        1.5131284204       -1.3472211235
 H        -4.5660625195        2.1982349758        0.2109284916
 H        -7.4176639695       -0.5782582401       -2.2716057004
 H        -8.7940621829       -0.4983316661       -1.3325519165
 H        -7.7033732724       -0.1349608976        1.9517602428
 H        -8.1011409202       -0.9828917373        0.5170836767
 H        -8.9574469248        0.4114006436        0.7963569980
 H        -7.9783243256        2.5768883658        1.4400606798
 H        -6.3549210070        2.2770005406        1.9894822057
 H        -6.5786498928        3.0753717474        0.4482219611
 H        -9.4205775104        1.4811983621       -3.1752695549
 H        -8.5238773105        0.2926042652       -4.1406996316
 H       -11.5342876135       -2.0600488080       -1.3998097996
 H       -12.9412594750       -1.3389771448       -0.4789168512
 H       -13.2539204876       -2.3530871809       -1.8808246078
 H       -11.0930974329        1.5227399473       -4.8585797514
 H       -12.0174374241        1.6061454070       -3.3703118282
 H       -12.8690523520        1.1987792751       -4.8499575802
 H       -13.2968121775       -1.7210449947       -4.6473885395
 H       -11.9554094413       -1.2392423268       -5.6713999802
 H       -11.6869295213       -2.4823596975       -4.4385141191
 Na        1.1006517292        1.8337719545       -0.4856466155
