155

 C        -4.7249760383       -2.3994115777       -3.7099697366
 C        -5.1875942057       -3.7724049577       -3.2110080071
 C        -5.9881118241       -4.6108390387       -4.2376830403
 C        -5.2711193417       -4.5091181319       -5.6451067564
 C        -3.9634899848       -5.2590017031       -5.7946753229
 C        -5.8753017900       -6.1124741439       -3.7340256059
 C        -7.4135118779       -4.1293091828       -4.3293545312
 O        -5.0884630938       -3.9605884798       -1.9792483700
 O        -5.9172785551       -4.0044044999       -6.5589243143
 C        -2.9892232436       -4.5233864739       -6.7413074682
 C        -1.5074042365       -4.8930673004       -6.6586406454
 C        -0.5193514353       -4.4876292486       -7.7278400139
 C        -0.9253913448       -2.9300213831       -8.0370795842
 C        -0.3319712585       -1.7796908112       -7.1147134885
 O        -1.0662941461       -5.5434883686       -5.7597342084
 O        -1.5127199219       -2.7301132432       -9.0791030973
 C         0.8851367998       -4.6133539912       -7.1388569905
 C        -0.5191981787       -5.3765209546       -8.9707537347
 C        -1.0074654429       -0.4309431460       -7.5322505539
 C        -0.8988821307        0.5302268389       -6.3850706653
 C         0.5468876451        1.2195163485       -6.0864182853
 C         0.9531154516        0.6138392488       -4.7506103825
 C         0.2292691208        1.0086899394       -3.4122195843
 C         1.6559200976        0.9661529679       -7.1355994863
 C         0.2058723293        2.7096461709       -6.0741727520
 O        -1.8491226793        0.9709260641       -5.7811219987
 O         1.5528623583       -0.4285613768       -4.7368405683
 C         0.6109885276        0.0934593187       -2.1737678330
 C        -0.0509929274        0.4940762387       -0.9150451932
 C        -1.4201320496       -0.1892669959       -0.5015339910
 C        -0.8978645148       -1.2840642574        0.5393885394
 C        -0.5701569238       -2.7377961766        0.1332181056
 O         0.3251716917        1.4536385866       -0.2244905563
 O        -0.5215266100       -0.9327404310        1.6424593310
 C        -2.3249683747        0.7466256131        0.3336348594
 C        -2.2586506817       -0.7711402588       -1.6754044846
 C         0.5505473356       -3.3228081004        1.0007547268
 C         1.9318924731       -2.5790247186        0.5671569792
 C         3.3364778364       -3.0502928081        0.9890077878
 C         4.3743790658       -1.8930300960        1.4011076050
 C         3.8294478394       -0.5807470400        2.1758657047
 C         3.1941044548       -3.8954547849        2.3512244892
 C         3.7820503546       -4.0389797098       -0.1803437313
 O         1.8480326381       -1.6091586895       -0.1377589414
 O         5.5750100782       -2.0978075860        1.3301685539
 C         5.0209796361       -0.0107964070        2.9862964823
 C         4.7437065819        1.0753575316        3.9909666577
 C         4.4534688698        2.4993025908        3.3014024119
 C         2.9118154636        2.5342955535        3.4645646705
 C         2.2490335652        2.8108818455        4.8523337778
 O         4.8322891840        0.9109403978        5.1582184107
 O         2.2190745475        2.1822350088        2.5442866296
 C         5.0539930723        3.6390961281        4.1333550063
 C         4.8122212755        2.5286257763        1.7797212472
 C         1.7851584086        1.6127062107        5.6904731484
 C         0.7703314245        0.6533781025        4.9574577500
 C        -0.7345760927        0.5219091423        5.6130097156
 C        -1.4713502357        1.8026032493        4.9596494096
 C        -2.7961190081        2.2960912810        5.7285837941
 C        -1.4624715276       -0.7203040546        4.8873319434
 C        -0.7306142422        0.2131027365        7.1513784878
 O         1.0508295544        0.0034585442        4.0117922489
 O        -1.3252366065        2.1334945447        3.7730549177
 C        -2.6884027861        3.8431059613        5.7271332953
 C        -1.5265510457        4.2854705218        6.6808117339
 C        -1.5274700201        5.6460877025        7.3274566354
 C        -1.3780162559        6.6900722427        6.0998841110
 C        -0.5691034855        7.9141276039        6.4504060947
 O        -0.5323264629        3.5284926409        6.6804960901
 O        -1.8786056561        6.5217729133        5.0405769282
 C        -2.8829216243        6.0605522084        7.9044387569
 C        -0.2926483382        5.7143700158        8.3828514720
 H        -5.3991349681       -1.6565480180       -3.3791180572
 H        -3.7264449612       -2.2270784465       -3.4564042374
 H        -4.6023113672       -2.2946578643       -4.8039561571
 H        -3.4219055677       -5.5108313750       -4.8434791044
 H        -4.2040185061       -6.2250776722       -6.2706538569
 H        -5.3371892374       -6.1008249166       -2.7960579246
 H        -5.2487677460       -6.8150720020       -4.2490214855
 H        -6.9550810086       -6.4655395793       -3.6644060462
 H        -7.5822756475       -3.1524659702       -4.5350685745
 H        -8.0489496779       -4.5143886728       -5.1365506472
 H        -7.9944229662       -4.4361139373       -3.4755606441
 H        -3.2760682126       -4.3768658580       -7.8428450026
 H        -2.8366570712       -3.5388916778       -6.3344808793
 H        -0.4851089669       -2.0027088459       -6.0360944468
 H         0.8188437993       -1.8642881426       -7.3114537434
 H         1.5919877211       -4.0085903421       -7.6555126281
 H         1.1501480319       -5.6488515176       -7.0385248679
 H         0.9292221803       -4.1584925706       -6.1277290101
 H        -0.5936062874       -6.4094645638       -8.7451066651
 H        -1.3558969596       -5.1531793242       -9.6238262698
 H         0.4179705939       -5.2007673022       -9.5105707195
 H        -2.0917501100       -0.5381085233       -7.5640557607
 H        -0.7211026667        0.0739033474       -8.4680678775
 H         0.4625222370        2.0842034570       -3.1682916171
 H        -0.8319316764        0.9872196984       -3.6603038541
 H         2.5748361056        0.9322312498       -6.6305270090
 H         1.8169562742        1.8664810975       -7.8261769018
 H         1.5378822921        0.0740370072       -7.8419857219
 H         1.0028411457        3.3894129678       -5.8032555877
 H        -0.1213989326        2.9962706053       -7.0854716578
 H        -0.6150120593        2.8969251457       -5.4454040590
 H         0.3990632970       -0.9066497822       -2.5794268055
 H         1.6764569660        0.0344552321       -2.1190508483
 H        -1.5882538417       -3.2171685999        0.2935616822
 H        -0.3431894608       -2.6638223863       -0.9158484644
 H        -1.7718278305        1.1485815460        1.1595211815
 H        -3.2722062918        0.2743980541        0.7759554181
 H        -2.6983048830        1.5470978571       -0.3039281730
 H        -2.1436582910       -1.8980594293       -1.6164572823
 H        -3.2843175053       -0.3504064214       -1.5795467175
 H        -1.9268282336       -0.3441171338       -2.6471641317
 H         0.7367550021       -4.3367326337        0.7846997120
 H         0.3435080123       -3.2274448891        2.0655930043
 H         3.4796204167        0.2138138424        1.4544878204
 H         2.9328766316       -0.8260638266        2.7380499020
 H         2.7131586838       -4.8187233307        2.0684624696
 H         2.6320164883       -3.3679456295        3.1634616365
 H         4.2744651320       -4.1879605063        2.6282146063
 H         2.9875171590       -4.5949930268       -0.6105728746
 H         4.3332715146       -3.5254913343       -0.9894005747
 H         4.3279234284       -4.8006570527        0.4051775389
 H         5.6280168276       -0.7698231537        3.5704474624
 H         5.7906600353        0.2404804896        2.2261699014
 H         3.0429616559        3.3375411621        5.4429234240
 H         1.4395836652        3.4537548109        4.5919614802
 H         4.7493861811        3.4563429415        5.1861925718
 H         4.6403577130        4.6335152326        3.7629741808
 H         6.1085932740        3.4668165653        4.1251258565
 H         5.7895301464        1.9901869342        1.5330110543
 H         3.9925288116        2.0852194747        1.2335863625
 H         4.7618124614        3.5513140133        1.5239968821
 H         1.3125311683        2.0343788843        6.5078940144
 H         2.6321600174        0.9477617571        5.8488496600
 H        -3.5641597508        2.0595145427        5.0234714567
 H        -2.6811605761        1.9597263583        6.7609033715
 H        -2.0882430633       -0.2538122809        4.0588429979
 H        -2.1443605903       -1.3038602498        5.5391943947
 H        -0.7173443042       -1.3810047872        4.4706792652
 H        -0.0035060794       -0.4946095583        7.5492887747
 H        -0.3558209844        1.0249222133        7.7795952094
 H        -1.6383784237       -0.2184178199        7.6120648069
 H        -2.4362825484        4.1869300280        4.7190942559
 H        -3.6843554801        4.1250457309        6.1487807583
 H         0.4382817672        7.5295520321        6.8312840417
 H        -0.2890132499        8.4505515283        5.6133316644
 H        -1.1285554932        8.4848589497        7.2070536916
 H        -3.3167462550        5.2275830021        8.5444982026
 H        -3.5510069002        6.2678676518        7.1008572865
 H        -2.7647491391        6.9291328111        8.4895626891
 H         0.5419198261        5.2497516840        7.9410972769
 H        -0.3312853970        6.7961491740        8.7587389771
 H        -0.5142037514        4.9721171111        9.1076011369
 Na        0.0501358724        1.3385576151        2.1112523945
