155

 C        -5.4205259441       -2.7098909678       -3.8804287183
 C        -5.3409634081       -4.2488102968       -3.4951840516
 C        -6.0267243078       -5.1717266467       -4.5863477933
 C        -5.0527392629       -4.9846404397       -5.7866995642
 C        -3.5308237656       -5.3623109524       -5.6334339577
 C        -6.0806778305       -6.6401017482       -3.9454661265
 C        -7.5051828782       -4.7133600112       -4.8141650931
 O        -4.6333991291       -4.6619763381       -2.5776409299
 O        -5.4317741937       -4.5417016365       -6.8809439600
 C        -2.6885283718       -5.1095286938       -6.8703547391
 C        -1.2961145913       -4.4840732381       -6.5684633597
 C        -0.4349318399       -4.1178793488       -7.6995427687
 C        -0.7536395446       -2.7597296016       -8.1882530420
 C        -0.8659371042       -1.6203570482       -7.1857085617
 O        -0.9124308845       -4.1691006189       -5.4863805311
 O        -0.9863693797       -2.5555357147       -9.3598951157
 C         1.0641114202       -3.9563305643       -7.3474673011
 C        -0.3775005093       -5.1004906530       -8.8836687286
 C        -0.5093017890       -0.2432300773       -7.7529585660
 C        -0.7568532195        0.9061694912       -6.7647504396
 C         0.4876441638        1.6752071470       -6.0551668876
 C         0.5867615868        0.7511662244       -4.6073190182
 C        -0.0097661546        1.2342903273       -3.2665344377
 C         1.8680954931        1.5816428955       -6.7026888235
 C         0.1308681757        3.1293578537       -5.8106778317
 O        -1.9479265201        1.1414940799       -6.4863266014
 O         1.1220673311       -0.3453803228       -4.7745267003
 C         0.4682460545        0.3204557188       -2.0531991047
 C        -0.1969985058        0.6436746821       -0.6938372824
 C        -1.4897411811       -0.3199906481       -0.1999041849
 C        -0.7951504991       -1.2792711647        0.7084621055
 C        -0.5250297649       -2.7190862413        0.2458400329
 O         0.2662684052        1.4684882762        0.0465195797
 O        -0.3302710851       -0.8720774923        1.7708983298
 C        -2.3846027100        0.5785903237        0.5639030922
 C        -2.2295199865       -0.9323971766       -1.4353038770
 C         0.7140155302       -3.3147862712        0.9717503698
 C         1.9088653395       -2.4283495110        0.6225199818
 C         3.4171550240       -2.9407618169        0.9112859603
 C         4.3314702059       -1.7616021244        1.1438872954
 C         3.9229219379       -0.9900555408        2.3374127212
 C         3.6734110969       -3.8642519262        2.1677923492
 C         3.9609217379       -3.6740455905       -0.3008621285
 O         1.8207086399       -1.3813665757        0.0198839273
 O         5.2326813988       -1.3587735201        0.4353545253
 C         5.0355507471       -0.2686126379        2.9884797485
 C         4.5615090469        0.7056729302        4.1209880883
 C         4.3658468203        2.3240560102        3.7313724281
 C         2.7717760271        2.5947488886        3.6058462299
 C         1.8896381368        3.0314476209        4.8469910410
 O         4.3885987974        0.3394817993        5.2504887699
 O         2.2656546362        2.6061624276        2.4839721535
 C         4.8582980266        3.3158235814        4.8412497724
 C         5.1669784608        2.7150851354        2.5050925450
 C         1.6908351713        1.9932677837        5.9628711750
 C         0.9590645150        0.7697236862        5.2982917229
 C        -0.6243677231        0.5473662933        5.6433104585
 C        -1.5034311206        1.6617522577        5.0681896055
 C        -2.9191298019        1.9973912661        5.6056984580
 C        -1.0596795072       -0.8059616446        4.9560901446
 C        -0.6842953531        0.2374849422        7.0720457581
 O         1.5332150542        0.2606197859        4.3349146117
 O        -1.2845141500        2.1601944198        3.9853091295
 C        -2.9959997957        3.5015293447        5.9269087179
 C        -1.8215360222        3.9466232438        6.7867045920
 C        -1.7038462225        5.4726361093        7.2154564941
 C        -1.4962915217        6.2311752141        5.8052132716
 C        -0.8972305274        7.6508408296        5.7402446297
 O        -0.9159907893        3.1863138687        6.9596303088
 O        -2.0225673944        5.8069994468        4.8413893053
 C        -2.9541445402        6.0379762426        7.8336214164
 C        -0.5380095603        5.7610723470        8.2380399931
 H        -4.4535688698       -2.2007438675       -3.8781982368
 H        -5.7678294268       -2.5724311308       -4.8728421904
 H        -6.0973167699       -2.2278581585       -3.2662646512
 H        -3.2545114846       -4.6094039678       -4.8773030443
 H        -3.3590049079       -6.3605138879       -5.1710278061
 H        -7.0969809313       -7.0559786412       -4.1423278271
 H        -5.7823689591       -6.5557914647       -2.9019626386
 H        -5.3745219873       -7.3102364561       -4.4819399511
 H        -7.6912333869       -3.6687275539       -5.1219740494
 H        -8.0314575376       -5.3419960340       -5.4995532294
 H        -8.1180170526       -4.6634356135       -3.9308345355
 H        -2.5207067341       -6.0773048777       -7.2489526364
 H        -3.3516736849       -4.5512865013       -7.5821266050
 H        -1.9499722564       -1.5761027944       -6.8847410661
 H        -0.3034553748       -1.8226941586       -6.3097338912
 H         1.5446696688       -3.6599334609       -8.2300061895
 H         1.5038133735       -4.8397225357       -6.9892210756
 H         1.2001656344       -3.1482000144       -6.5620195185
 H         0.1904758898       -5.9685536423       -8.6166946731
 H        -1.3557757993       -5.3822809760       -9.1653029924
 H         0.1126287332       -4.5422329894       -9.7436897131
 H        -1.0644425318       -0.1576480020       -8.7276015511
 H         0.5650941082       -0.2759605306       -8.0815289963
 H         0.3572607665        2.1807684477       -2.9363138618
 H        -1.1196127510        1.3188175333       -3.2571939411
 H         2.7400485895        2.0600899302       -6.1910238103
 H         1.7895320429        2.0170685733       -7.6593973631
 H         2.1771509085        0.5757892387       -6.9311356707
 H         0.8547620335        3.6966744148       -5.1852164253
 H         0.1110884176        3.6305454021       -6.7424362966
 H        -0.7665462712        3.2249157129       -5.3309013264
 H         0.3235672585       -0.7741116120       -2.3271053696
 H         1.5559838585        0.4437644567       -1.9205515131
 H        -1.3373749028       -3.4213683389        0.4776796899
 H        -0.5406976153       -2.6905036707       -0.8858709854
 H        -1.9194158796        1.5053299425        1.0516726811
 H        -3.0005914865        0.0051063264        1.1933694613
 H        -3.1478169095        1.0845830124       -0.1177848566
 H        -1.5984444959       -1.4671229903       -2.1199778429
 H        -3.0901778460       -1.5525356945       -1.1638022825
 H        -2.5652651419       -0.1815783829       -2.0508491948
 H         0.8627796385       -4.3313324966        0.6545244680
 H         0.6243720166       -3.1654489675        2.0134619919
 H         3.2423981988       -0.1696938238        2.0389670991
 H         3.4175412021       -1.6291217042        3.0710384151
 H         3.2482014054       -4.9115492926        2.0807161743
 H         3.2101073449       -3.3862066319        3.0605024747
 H         4.7773025269       -3.9598808613        2.3779748992
 H         3.6487042614       -4.7402177495       -0.2528320789
 H         3.5340735039       -3.3517499823       -1.2621201263
 H         5.0215518729       -3.5688437444       -0.3716353853
 H         5.7115461564       -0.9503709485        3.4894215172
 H         5.5271432578        0.1170076107        2.0507806822
 H         2.2589329379        3.9854936962        5.2153940798
 H         0.9424008950        3.4340288352        4.4926626654
 H         5.1647024963        2.8112347896        5.7379375183
 H         4.0597457866        4.0469377405        5.2279016651
 H         5.6444004565        3.9423808184        4.4615123020
 H         6.1487082796        2.3420523352        2.5424905387
 H         4.7360818526        2.2817211320        1.5772905086
 H         5.2506029707        3.8445691243        2.4672774418
 H         1.0950950942        2.5290252074        6.6960717308
 H         2.6670553704        1.7424902661        6.3823344594
 H        -3.7461434721        1.7880337561        4.8465967385
 H        -3.1241408098        1.3648344639        6.5130309351
 H        -0.2411122142       -1.5551753544        5.1879065551
 H        -1.3039385994       -0.7008871687        3.8760479535
 H        -1.9128720553       -1.2016187829        5.4461352316
 H        -0.4549442437       -0.8210909159        7.3167926367
 H        -0.0652388940        0.7253585826        7.7694511489
 H        -1.5979353171        0.5335407584        7.6422783057
 H        -2.7786886852        4.0495045783        4.9822047457
 H        -3.9992082989        3.7240168511        6.3263925451
 H         0.1495996031        7.6929696791        5.5616265290
 H        -1.3387238300        8.2485400930        4.9183841537
 H        -1.2087942065        8.2157891233        6.6645185060
 H        -3.0564220082        5.6433402846        8.8218335586
 H        -3.7632066939        5.6916500066        7.2317961899
 H        -2.9909392205        7.0758973768        7.7565056163
 H         0.3603043773        5.7391756844        7.6221121896
 H        -0.7065881494        6.7033089456        8.7406174449
 H        -0.6409453028        5.0033171160        9.0394083863
 Na        0.2307760604        1.3661206186        2.2757322499
