155

 C        -5.6772357628       -2.7301562278       -3.5823742462
 C        -5.3459087123       -4.2387428345       -3.5259271908
 C        -5.9362385487       -5.3070470630       -4.7309345556
 C        -4.9032858927       -5.2741218308       -5.8902775635
 C        -3.4384479904       -5.4540280220       -5.5584441250
 C        -5.8481258821       -6.7657070462       -4.1192348470
 C        -7.2663368925       -4.9859505355       -5.2831585798
 O        -4.6111085392       -4.6818574722       -2.6951899035
 O        -5.2199608255       -4.8072704397       -6.9326758837
 C        -2.4816379623       -5.3686347605       -6.8141527890
 C        -1.3295184850       -4.3648152540       -6.6011569704
 C        -0.3637756296       -4.0770175114       -7.7208162289
 C        -0.6904887381       -2.5822583462       -8.2500111908
 C        -1.1091575762       -1.5589441392       -7.1873962096
 O        -1.1268766023       -3.7984272917       -5.5095664053
 O        -0.7135824877       -2.2398381440       -9.3869020932
 C         1.1178475554       -4.0769175909       -7.2914330406
 C        -0.4958243082       -5.0167463377       -8.8614432630
 C        -0.3843696815       -0.1947225335       -7.5817193500
 C        -0.8101159113        0.9783800934       -6.7439023763
 C         0.4122645490        1.7139050187       -5.7940829750
 C         0.4943983074        0.8790445217       -4.5500549183
 C        -0.1586275462        1.4005330008       -3.2946314695
 C         1.7809144408        1.6123495431       -6.5955089841
 C        -0.0282807099        3.1193888973       -5.5044449458
 O        -1.8924115129        1.4821748432       -6.7303989939
 O         1.0498241427       -0.2089067004       -4.5731616662
 C         0.3037857269        0.4993007883       -2.1756755064
 C        -0.2311541034        0.6774202878       -0.8127471465
 C        -1.4379345517       -0.3145893901       -0.3304207976
 C        -0.7417013673       -1.3291194241        0.7087552893
 C        -0.4307614707       -2.8410920116        0.3796225625
 O         0.3613253657        1.4969457747       -0.1297172105
 O        -0.5245350238       -0.9120460045        1.8338510525
 C        -2.4551125331        0.5238219857        0.5424613133
 C        -2.1628186753       -0.9211851200       -1.5339626727
 C         0.8154081088       -3.3632106090        1.0714776560
 C         2.0776751181       -2.5687193514        0.5272606253
 C         3.4594747005       -3.0002455489        0.7949056144
 C         4.2225814958       -1.5864930003        1.1394304204
 C         3.8195713931       -0.7502104046        2.3455133266
 C         3.5418680650       -4.0256055543        1.8674793144
 C         3.9533238351       -3.6152222238       -0.5562431001
 O         1.8315832308       -1.5231997257       -0.0574546769
 O         5.1010951949       -1.1928224057        0.4421443125
 C         5.1063484924        0.0216684189        3.0985463370
 C         4.6056276312        0.8255056149        4.2004368979
 C         4.4449091929        2.4531682018        4.0238202659
 C         2.9451498723        2.6882238814        3.7058063868
 C         1.9569225706        3.2222128053        4.7842466100
 O         4.3312487354        0.4522063460        5.3647896432
 O         2.5436921908        2.2696097445        2.6275701343
 C         5.0412390858        2.9640585360        5.3056898382
 C         5.0934043410        2.9458023738        2.6615506712
 C         1.6495395649        2.0351715597        5.7911966590
 C         0.8799942642        0.8532763455        5.2044619148
 C        -0.6252793676        0.4487788514        5.6388562723
 C        -1.6019220628        1.4780764183        5.1412932307
 C        -2.8257655300        1.8256044158        5.9573027097
 C        -0.9532509330       -0.8557619323        4.9014961888
 C        -0.5635444158        0.3528645057        7.1450506972
 O         1.2190077803        0.3140654814        4.1797453960
 O        -1.4474094238        1.8884752226        3.9689194983
 C        -3.0678856259        3.3639734795        6.1554513713
 C        -1.8254355576        4.0054175225        6.8328780305
 C        -1.8269064039        5.4532617713        7.0478673637
 C        -1.5672164075        6.2058635189        5.6653847453
 C        -1.0195241383        7.6180323354        5.6971402718
 O        -0.8310224378        3.2919595029        7.0719794761
 O        -2.0479037000        5.6929208618        4.6589210452
 C        -3.2124990550        5.9115613981        7.7009484597
 C        -0.6129753950        5.7195547588        8.0485100637
 H        -4.8050344420       -2.1966714321       -4.0510886094
 H        -6.4615870026       -2.4164880680       -4.3542106090
 H        -5.9958000282       -2.3241375526       -2.6001341907
 H        -3.1991648541       -4.6392240572       -4.8816418199
 H        -3.4196164207       -6.3386016115       -4.9622781195
 H        -6.0610282013       -7.3982513554       -4.9318947054
 H        -6.5615969390       -6.8380302174       -3.2765885626
 H        -4.9200929111       -7.0183838989       -3.6564587955
 H        -7.2931608735       -3.9409233917       -5.5995563652
 H        -7.5410146645       -5.6531884334       -6.1240686495
 H        -8.1182238714       -4.8728175178       -4.6118613505
 H        -2.2126967950       -6.4168450815       -7.1446983309
 H        -3.1114150916       -4.9469833086       -7.5805587534
 H        -2.1667578780       -1.5492099100       -7.3006279988
 H        -0.8417390620       -1.8475242470       -6.1595215584
 H         1.7898017024       -3.4749890097       -7.9590257018
 H         1.6054574338       -5.0910871432       -7.3702880970
 H         1.1339538061       -3.7224415155       -6.3244682929
 H        -0.2599277351       -6.0613427648       -8.4878989036
 H        -1.5825154823       -4.9153621508       -9.1739519527
 H         0.1219692012       -4.7866993526       -9.6716308224
 H        -0.6709238031        0.0582734624       -8.5858874798
 H         0.6531307254       -0.4013476255       -7.6114673145
 H         0.0160670204        2.4538528999       -2.9852844768
 H        -1.2257334589        1.2641243983       -3.1960720680
 H         2.5707694740        1.8380620933       -5.8606755960
 H         1.9811415381        2.4069877604       -7.3002047989
 H         2.1414597624        0.6832256764       -6.9541770107
 H         0.7496680834        3.6388924029       -5.0066363609
 H        -0.2311934990        3.6864176683       -6.4357090769
 H        -0.9809274961        3.1891613759       -4.8205605106
 H         0.0666612145       -0.5098044431       -2.5000385235
 H         1.3870247679        0.6035740202       -1.9936741758
 H        -1.2833821347       -3.4143077655        0.7346005270
 H        -0.4830309778       -3.0170818453       -0.6564485292
 H        -1.8729382680        1.1951436912        1.1121009668
 H        -3.0717675761       -0.1163710092        1.2175499774
 H        -3.0749990041        1.1884130709        0.0371663500
 H        -1.8710598673       -1.8917072024       -1.9455307157
 H        -3.1870070910       -1.1548781143       -1.3326243754
 H        -2.1749372678       -0.2303392928       -2.4324221429
 H         0.9654507597       -4.4415471875        0.8079660404
 H         0.8054902828       -3.0779913434        2.1758629429
 H         3.3561888969        0.1324982889        1.9325716954
 H         3.1572615805       -1.2449270198        3.0474629746
 H         3.0815243665       -4.9389704831        1.5378925238
 H         3.1432441270       -3.7362496219        2.8347837358
 H         4.5617534546       -4.2394429102        1.9955685900
 H         3.3316610703       -4.3890435370       -0.9850428214
 H         4.1372395717       -2.8374994258       -1.2939449312
 H         5.0177443114       -3.9523638012       -0.4166609117
 H         5.8386851062       -0.7304084992        3.4510457895
 H         5.5072729624        0.5915483078        2.2734936909
 H         2.3931780743        4.1051257946        5.2300552325
 H         1.0955078173        3.7537514757        4.3709973807
 H         4.7574346511        2.3296765560        6.1420810820
 H         4.7726198273        3.9260663562        5.5445566160
 H         6.1292700342        3.0902151496        5.2125713105
 H         6.2140304563        2.9241524818        2.5801386919
 H         4.6683848872        2.3887398304        1.8259187758
 H         4.8639987179        3.9828643364        2.5097592091
 H         1.1049134768        2.4138699391        6.6972254474
 H         2.6621594034        1.7036632088        6.1372989575
 H        -3.6511673159        1.4502022201        5.3462832914
 H        -3.0020005456        1.2544623235        6.8577557768
 H        -0.1334652775       -1.3959376836        4.6041095297
 H        -1.5562417403       -0.6510552076        4.0555979889
 H        -1.5003753619       -1.5122981491        5.6187821991
 H         0.2681033115       -0.1883046485        7.4948654507
 H        -0.7020462466        1.2984296181        7.7048881280
 H        -1.3122879444       -0.1013032836        7.7109009663
 H        -3.2481430361        3.9045576035        5.2195287581
 H        -3.9519886758        3.4229397264        6.7892329192
 H        -0.0321795793        7.6562312942        6.2354041330
 H        -0.8666706977        8.0718488772        4.7006979736
 H        -1.7028128420        8.2530447844        6.1913727421
 H        -3.5087738291        5.1541521191        8.4215243872
 H        -3.9790934263        5.8590520179        6.8991976210
 H        -3.0956573003        6.9275669292        8.2688540222
 H         0.2610421314        5.1653281857        7.6651711641
 H        -0.2929554254        6.7561941869        8.0525891520
 H        -0.9847756661        5.4706343662        9.0103403030
 Na        0.3939580865        1.2491578842        2.3489788545
