155

 C        -5.2626770867       -6.5512518549       -7.8170696521
 C        -4.8999047534       -6.6007436202       -6.3516239704
 C        -3.4494793133       -7.2120697997       -5.9631771680
 C        -2.3981195760       -6.1030240222       -6.4160150276
 C        -2.2409974339       -4.8399840576       -5.5723021174
 C        -3.2131988664       -7.4971932960       -4.4437646759
 C        -3.0801848233       -8.5019776451       -6.7409962002
 O        -5.6421613417       -6.3217240912       -5.4006033430
 O        -1.8439185851       -6.2574364325       -7.4691025502
 C        -1.1444741309       -3.9542514978       -6.1343518998
 C        -1.5057329553       -2.6324037350       -6.7679261158
 C        -0.3602531815       -1.6012903156       -7.1238451986
 C        -0.7148094246       -0.4860972927       -6.1430767545
 C        -1.9510599566        0.4599286926       -6.3518124773
 O        -2.6260464486       -2.2002713181       -7.0296317998
 O        -0.0217483712       -0.3676674898       -5.1707859461
 C         1.0167068545       -2.1550712128       -6.7436475270
 C        -0.3280381381       -1.0775385073       -8.5253572306
 C        -1.6438839862        1.9932543382       -6.0186996326
 C        -1.2562762522        2.2534356754       -4.6340058015
 C        -0.4760688031        3.5966348813       -4.2487081825
 C         0.4119903860        3.3263235277       -2.9911893588
 C        -0.1551643722        2.7578195520       -1.6752973313
 C         0.4737271347        4.0918459001       -5.3550661319
 C        -1.6121159664        4.6277308916       -4.0361378943
 O        -1.5036930800        1.4911694839       -3.7579169784
 O         1.5622909082        3.7412757951       -3.0377594650
 C         0.3330464008        1.3530405604       -1.3764940507
 C        -0.3229528655        0.6396046501       -0.2978642406
 C        -1.2216135640       -0.7140010618       -0.3924293490
 C        -0.2878084067       -1.8705436558        0.1763836852
 C         0.4065156186       -2.8019479881       -0.9409764966
 O        -0.2909685806        1.2541117541        0.7959889068
 O        -0.0299140316       -1.9079554110        1.3450881515
 C        -2.3839311075       -0.6340765115        0.6705019268
 C        -1.6969464969       -0.9432446834       -1.7658941752
 C         1.6888309455       -3.3519319180       -0.3909497708
 C         2.6432868255       -2.2754414204        0.0383253476
 C         4.0556518285       -2.8299250764        0.4291924150
 C         4.8384066016       -1.6459711272        1.1728632749
 C         4.0687400234       -0.7439289924        2.2455910800
 C         3.8382964517       -4.0310721994        1.3733443221
 C         4.8963078735       -3.0382640787       -0.8797072678
 O         2.3134180066       -1.1032338669       -0.0645049772
 O         5.9956607521       -1.3904884897        0.9549500775
 C         5.0668751667        0.2057158959        2.8829789725
 C         4.4612782909        1.0564479817        3.9916135459
 C         3.8727907894        2.4601807565        3.8646109176
 C         2.3345186774        2.0945525798        3.8687251186
 C         1.5111776252        2.2493724466        5.1230624165
 O         4.6814271890        0.6770227999        5.1641857421
 O         1.8233710763        1.7695185418        2.8048025106
 C         4.2162380737        3.3971182655        5.0335631751
 C         4.2105440139        3.0896305324        2.4743180000
 C         1.6878934187        1.0643969002        6.1900427172
 C         0.8932265905       -0.0899111406        5.6664900628
 C        -0.5626034506       -0.5419573368        6.2097486365
 C        -1.6758994439        0.4701509218        5.6685896013
 C        -2.6153577303        1.1806297868        6.6229720633
 C        -0.8772464146       -1.9009589724        5.4692530917
 C        -0.5090794477       -0.7639632657        7.8017951283
 O         1.3689002635       -0.7898942886        4.7879678906
 O        -1.5647868020        0.8970827479        4.5257141301
 C        -3.6600536855        2.2536904429        6.0870647349
 C        -2.9211694349        3.5554299852        6.1344310469
 C        -3.6170301122        4.9025685225        5.6369359160
 C        -3.6619759911        4.7839440604        3.9918208403
 C        -3.4378687861        6.0023798167        3.1602276142
 O        -1.8122488270        3.6256758314        6.6179838880
 O        -3.6866045828        3.7193787068        3.4507326519
 C        -5.0554751559        5.0497862504        6.2250245848
 C        -2.8111661683        6.1453030607        6.0884682602
 H        -5.2529776163       -5.5017515975       -8.2153627434
 H        -4.5051059936       -7.0316513094       -8.3685803234
 H        -6.2253716974       -6.8619502829       -7.9759187231
 H        -3.1220509036       -4.2183501011       -5.4430645681
 H        -1.9851060202       -5.1428253874       -4.5011786759
 H        -4.1098565372       -7.7317293061       -3.8759744854
 H        -2.5721155713       -6.6833969486       -3.9032166714
 H        -2.5470903427       -8.3092109572       -4.2927073007
 H        -4.0295496454       -8.8166683983       -7.2854058035
 H        -2.1651557950       -8.3347148009       -7.3194845687
 H        -3.1182838541       -9.2760850012       -5.9738746290
 H        -0.5002147883       -3.7695271480       -5.3006370083
 H        -0.4916776110       -4.4977014327       -6.8255359900
 H        -2.0929617377        0.5431667068       -7.4332040371
 H        -2.8456782780        0.1674879711       -5.8801173516
 H         1.8325309869       -1.4550654631       -6.6989904763
 H         1.2367042918       -2.9720854832       -7.4516717178
 H         0.9941524373       -2.5383522907       -5.7562149809
 H         0.5357005445       -1.4831611319       -9.1474899273
 H        -1.3267314473       -1.2089690355       -8.9923829899
 H        -0.2839876579       -0.0265745582       -8.5229783075
 H        -2.4598330985        2.6054985988       -6.3633243002
 H        -0.8022969124        2.2847535895       -6.6831344023
 H         0.0205344680        3.4262559243       -0.7956472969
 H        -1.2600400906        2.7085878964       -1.6423097924
 H         1.2279397321        4.8257152165       -5.0494764817
 H        -0.1149417294        4.3704729116       -6.2058933220
 H         1.0938069748        3.2460691503       -5.7273081438
 H        -1.2862798235        5.6020701985       -3.5518293048
 H        -2.1681093813        4.9365091745       -4.9806676335
 H        -2.3999990909        4.1802493968       -3.4737154723
 H         0.2928477164        0.7414107158       -2.2952405575
 H         1.4596723142        1.4004856850       -1.1562374338
 H        -0.2743166135       -3.6275827369       -1.3092565357
 H         0.6511508015       -2.1588227433       -1.8037630273
 H        -2.8246840487        0.3464198643        0.7956744416
 H        -2.0948933498       -0.9046091489        1.6574387604
 H        -3.1692178113       -1.3022280526        0.2050903222
 H        -0.9438067156       -1.4578345234       -2.4315399774
 H        -2.6075122810       -1.6577550276       -1.8636614633
 H        -2.1426731435       -0.1220172072       -2.3765873597
 H         2.1009342410       -4.1237247122       -1.0228686288
 H         1.3929615409       -3.8737903115        0.5284924484
 H         3.2769901523       -0.1784064142        1.6798028024
 H         3.5463364043       -1.5448225999        2.7829564757
 H         3.5178246373       -4.8716044799        0.6763823865
 H         3.0630240233       -3.8468806883        2.1585538508
 H         4.7634123032       -4.4578056309        1.7495572922
 H         4.3335878207       -3.4934658782       -1.6513853366
 H         5.3152911295       -2.0473630599       -1.0523382541
 H         5.8439131430       -3.6182189050       -0.6597055968
 H         5.8820801953       -0.3655934402        3.3575862833
 H         5.5876614127        0.7594347240        2.0775062435
 H         1.7109549893        3.2316707569        5.6183329446
 H         0.4783371615        2.3663171972        4.9480412540
 H         4.3431022754        2.8598481745        5.9960958846
 H         3.4483554695        4.1379391218        5.0777173966
 H         5.2004291450        3.9338007074        4.8946658145
 H         5.2540443637        3.1846010039        2.2289382719
 H         3.4819936311        2.5651679103        1.7958909007
 H         3.8149091093        4.0795779486        2.4987746143
 H         1.4660562917        1.3035955680        7.1749229485
 H         2.7169238959        0.7579312966        6.3758521595
 H        -3.1089445656        0.5965767480        7.4150442499
 H        -1.9480626921        1.6603007504        7.3619344129
 H        -0.1608634195       -2.6660196164        5.7114326248
 H        -0.9450517581       -1.8538784222        4.3700832953
 H        -1.8520772211       -2.2559330617        5.7956512979
 H         0.4117691955       -1.3059736804        7.7849196535
 H        -0.4967917479        0.2050800641        8.1874670982
 H        -1.3152283305       -1.4058704670        8.0953597983
 H        -4.2385891501        1.9297781670        5.1464657624
 H        -4.4729018374        2.3261635162        6.8366421075
 H        -2.8450901093        6.7982878886        3.6077502964
 H        -2.8670534829        5.7836509618        2.2389097268
 H        -4.4290707727        6.3126675409        2.8711668926
 H        -5.2237581041        6.1732216368        6.4299358653
 H        -5.0110241524        4.4931384619        7.1598169126
 H        -5.8061564771        4.6026532624        5.5309039228
 H        -2.7505494960        6.1744517933        7.2638500273
 H        -1.7707571022        6.1000652892        5.7222822270
 H        -3.3353877117        7.0952389971        5.7397469087
 Na        0.1965611300        0.0403028652        2.8450024022
