155

 C        -4.6306388541       -7.1339113629       -8.1672250027
 C        -4.5743032207       -6.9283775671       -6.6772995326
 C        -3.1214336003       -7.2938888687       -6.0239980107
 C        -2.2524397701       -6.2114197532       -6.6744595175
 C        -2.2361815717       -4.8800526525       -5.9947769586
 C        -3.0646061620       -7.2671546871       -4.4680220745
 C        -2.5771043104       -8.6824023781       -6.5752293516
 O        -5.4442882160       -6.2781609637       -6.1393444051
 O        -1.5591734527       -6.3625405578       -7.6986595116
 C        -1.0078375388       -3.9666467833       -6.3719080940
 C        -1.4566572946       -2.6032605717       -6.8954784414
 C        -0.3756322734       -1.4265305974       -7.0385615629
 C        -0.7874838839       -0.3601048289       -5.8703417486
 C        -1.8533275737        0.6467510635       -6.0017243891
 O        -2.6679495103       -2.4016406278       -7.1114761194
 O        -0.3182919924       -0.4042594841       -4.7510062177
 C         1.1329429443       -1.7819932429       -6.7868878055
 C        -0.6301008622       -0.7780630612       -8.4115033653
 C        -1.2990476648        2.1815673405       -5.8979886570
 C        -1.4459616587        2.8033236093       -4.5126723329
 C        -0.6339571366        4.0186784543       -4.0774973996
 C         0.3087021603        3.5117636425       -2.8456260425
 C        -0.3150715346        2.9696895447       -1.5920538106
 C         0.3098051201        4.4957105766       -5.1815304778
 C        -1.6813877911        5.0612178493       -3.6815443954
 O        -2.2958568395        2.3307332617       -3.7885435221
 O         1.4736946014        3.6739032276       -3.0217135806
 C        -0.0091599345        1.4954222896       -1.5528784947
 C        -0.4847724455        0.7943869099       -0.2822247179
 C        -1.2056199743       -0.6128442658       -0.2448429977
 C        -0.1241010523       -1.6286451341        0.2888666739
 C         0.3562038638       -2.7605101132       -0.6166763609
 O        -0.2723858939        1.2930020765        0.8257141807
 O         0.1354263784       -1.6442346068        1.4444935857
 C        -2.4008238021       -0.6905239082        0.7131295808
 C        -1.7361805174       -0.9275158247       -1.6540091728
 C         1.6433159978       -3.3857008439       -0.0727984509
 C         2.7251267355       -2.3775894600        0.1284829824
 C         4.1829348676       -2.7371702980        0.5762126610
 C         4.9933255992       -1.6157721717        1.2429268574
 C         4.2237968796       -0.7983062640        2.3061837916
 C         4.2597995652       -3.8594770012        1.6615119652
 C         4.8645278830       -3.1300024987       -0.8333320130
 O         2.5541018363       -1.2040144237       -0.1137673455
 O         6.1680523409       -1.3720816317        1.0447432739
 C         5.1288428453        0.2386910660        2.9528473560
 C         4.4048269560        1.1029629127        4.1061392177
 C         3.7250367603        2.4561725426        3.7844928165
 C         2.2177278396        1.8930316574        3.9359022734
 C         1.3211859410        2.2588897736        5.1120874357
 O         4.5100742209        0.7770418179        5.2910582041
 O         1.9022307556        1.0868958863        3.0849039392
 C         4.1072649434        3.3929328213        4.9295665580
 C         3.8871309380        3.0535934476        2.3274864567
 C         1.4115244508        1.1054602713        6.2259708691
 C         0.8252457194       -0.2051174661        5.7293978748
 C        -0.5596619128       -0.7659347333        6.1707358346
 C        -1.5329116457        0.3127949915        5.5838083634
 C        -2.5568696958        0.9494978099        6.4995103761
 C        -0.7894732826       -2.1386839177        5.6836853275
 C        -0.5823970897       -0.7873553895        7.7320067712
 O         1.3877234152       -0.8390741105        4.8867767704
 O        -1.4458985580        0.7235173592        4.4262500613
 C        -3.3900479241        2.1253135256        5.8948534756
 C        -2.7064355022        3.4386429794        5.8097980329
 C        -3.5667511964        4.7436882337        5.4581587547
 C        -3.9469258646        4.5741572622        3.9013998970
 C        -3.7207648977        5.7643379593        2.9262568942
 O        -1.5396383101        3.5787131940        6.0060052817
 O        -4.3388611526        3.5205697976        3.5268771234
 C        -4.9265239999        4.5777670765        6.1938423308
 C        -2.8972144687        6.1090226416        5.8330712459
 H        -3.6713091728       -6.7910806498       -8.6430157657
 H        -4.7287596009       -8.1382767277       -8.4210048920
 H        -5.3940242793       -6.6162791237       -8.5880137799
 H        -3.1734657802       -4.4307638040       -6.2581182638
 H        -2.2665928922       -5.0636644436       -4.8967299283
 H        -3.3411562112       -6.3402402681       -4.0766547911
 H        -1.9954947667       -7.2890612104       -4.1311101676
 H        -3.4832527315       -8.1290392111       -4.0195600990
 H        -3.5009789805       -9.2790792589       -6.8508341559
 H        -2.0956736136       -8.4535466017       -7.4958762907
 H        -2.0118073610       -9.1181997469       -5.7567217782
 H        -0.3567052918       -3.9448040585       -5.5048917889
 H        -0.4614844456       -4.5945104595       -7.1008354406
 H        -2.3902516882        0.5901259815       -6.9371904855
 H        -2.5708529349        0.5190774134       -5.2467135568
 H         1.6857906055       -0.9206779579       -6.9267791153
 H         1.5025552530       -2.5913436534       -7.3651047927
 H         1.2358870462       -2.1282336326       -5.7351947191
 H        -0.9209516219       -1.5967701213       -9.1593626259
 H        -1.4478759471       -0.1049738138       -8.5170848050
 H         0.2092964421       -0.2628054586       -8.7937593731
 H        -1.8342822471        2.8366315072       -6.5057855770
 H        -0.3439512786        2.1427687358       -6.3713385420
 H         0.0891312668        3.4638553437       -0.6909639385
 H        -1.3248957835        3.2313607645       -1.5295884008
 H         1.0306286596        5.1060550861       -4.8307317386
 H        -0.2817500792        5.0968695897       -5.8530648342
 H         0.8882133649        3.7647007930       -5.7268096061
 H        -1.2154782907        6.0214465051       -3.3409934644
 H        -2.2853015382        5.5297573145       -4.4812848462
 H        -2.3493506644        4.6991915810       -3.0094213016
 H        -0.3995680014        1.0785025830       -2.4908164382
 H         1.1079108453        1.3092728363       -1.4544357150
 H        -0.4540774542       -3.5502273103       -0.6857321124
 H         0.5197909319       -2.4180758885       -1.6263478634
 H        -3.1856076496       -0.1975082289        0.3101465493
 H        -2.1949318795       -0.0705871140        1.6229537572
 H        -2.5903157681       -1.6974936666        1.0022834295
 H        -0.9135436447       -1.2823914409       -2.2976263776
 H        -2.4436424932       -1.7400680253       -1.7254870158
 H        -2.0161172984       -0.0491564980       -2.2375789526
 H         2.0467173932       -4.0978339473       -0.7346531018
 H         1.5017447377       -4.0410385349        0.7614803192
 H         3.2906460830       -0.3356374964        1.8308452060
 H         3.7914087945       -1.4966823994        3.0388516875
 H         3.8078084391       -4.7939732674        1.3147019368
 H         3.7012443992       -3.6048491462        2.5148607532
 H         5.2663737156       -4.0386741858        2.0200420799
 H         4.8692321880       -4.1788891990       -1.0775425480
 H         4.3677115708       -2.4826357892       -1.5613018909
 H         5.9416145524       -2.8392118634       -0.7271460391
 H         5.9559486117       -0.3060625663        3.4530999660
 H         5.5947103248        0.9950634768        2.3442149276
 H         1.5589599967        3.2017339140        5.6389698491
 H         0.2959046433        2.4182700123        4.8526116337
 H         5.1810524088        3.4935384362        5.0844996276
 H         3.8006354863        2.9506817484        5.8644911175
 H         3.8714880951        4.4323437840        4.6558908549
 H         4.9461964206        3.1875684503        2.0892092498
 H         3.2784734348        2.3529636407        1.6729289535
 H         3.3559588981        4.0356562688        2.3659892472
 H         0.9484527389        1.3929902057        7.1607953507
 H         2.4703826927        0.9955250385        6.5595600050
 H        -3.3107145623        0.1249161598        6.7265675731
 H        -2.3158588089        1.2114433244        7.5627954264
 H        -0.0543734980       -2.9578090619        5.8691995856
 H        -0.7843816519       -2.2016294228        4.5630945128
 H        -1.7356534681       -2.3706582393        6.0558312270
 H         0.3432475650       -1.2682410233        7.8809888142
 H        -0.4345897613        0.2902890458        7.9930731166
 H        -1.4970498072       -1.2744226561        8.0315989788
 H        -3.7736566668        1.8198821762        4.9039456322
 H        -4.2627453624        2.2003953387        6.5580759082
 H        -3.5516184605        6.7101260670        3.4629900879
 H        -2.8369658636        5.6007934140        2.3303811051
 H        -4.4772312998        5.7009155997        2.1292884576
 H        -4.8351405620        4.5513421569        7.2688150859
 H        -5.5569967106        3.7501144483        5.6521296598
 H        -5.5053542984        5.6114915002        6.0967802610
 H        -2.7209467654        6.1568800655        6.8814446792
 H        -2.0922838021        6.3247614725        5.1351730991
 H        -3.7139054453        6.8540372044        5.8829782635
 Na       -0.0729752062       -0.0973345225        2.9374375668
