155

 C         3.3902309318       -9.0423352662       -0.1455427597
 C         4.3619676739       -8.4514066545        0.8098508776
 C         4.7548371716       -6.8510057855        0.7872472339
 C         3.4237813907       -6.1681527523        1.2469951398
 C         3.2705537285       -6.0320168645        2.8259324707
 C         5.8892293575       -6.6725060338        1.7458276394
 C         5.0152034164       -6.3753534110       -0.6732729946
 O         4.8955311430       -9.1709853847        1.5959915178
 O         2.5979104733       -5.8392026565        0.4145083499
 C         2.0180909104       -5.1619177878        3.1585425574
 C         2.2905178923       -3.6983124806        3.0744340179
 C         1.2786650643       -2.6874340872        3.7309121872
 C         2.0099022179       -1.4331639407        4.1038996125
 C         2.9731976105       -0.7959579046        3.1377098882
 O         3.3983751743       -3.3865656459        2.6328839142
 O         1.9294112068       -1.0434934891        5.2488120143
 C         0.1571124694       -2.5541061942        2.7352553074
 C         0.7193386463       -3.3305754232        5.1249398647
 C         2.9818707817        0.7484979431        3.2803928153
 C         1.8950421561        1.4077100013        2.4206120949
 C         1.3955127412        2.8676309292        2.8103902420
 C         2.3228055434        3.7972381426        1.8871201952
 C         3.1660756041        4.9952815615        2.3112575812
 C        -0.1489169249        2.9408183578        2.5101658750
 C         1.6246584373        3.1105426182        4.3156372317
 O         1.6292449546        0.9598067645        1.3134103845
 O         2.2038690075        3.6024703043        0.7042744197
 C         4.1163356134        5.4986755658        1.2574974931
 C         5.5184277578        4.6368940062        1.2279656394
 C         6.6343713119        5.2048857291        0.2917901896
 C         6.2846289263        4.7669857431       -1.2117860372
 C         5.9132065263        3.2222247557       -1.3666988388
 O         5.6570811555        3.6090848446        1.8813557054
 O         6.4448039365        5.4571960433       -2.1952742165
 C         6.8726785731        6.6022945692        0.5770524814
 C         7.8640703268        4.3639633744        0.7578924137
 C         5.3570115635        2.9390316030       -2.7603350478
 C         4.0002133903        2.1816395415       -2.6086049518
 C         3.9967133251        0.4803938116       -2.7803779193
 C         2.5816759736        0.0597880899       -2.6653150280
 C         1.8175882550        0.0439591114       -4.1136178486
 C         4.6572925446        0.1799386585       -4.1276494759
 C         4.8407968027       -0.0013182794       -1.5661121537
 O         2.9940603518        2.8364803109       -2.3564326728
 O         2.0270617447       -0.1898186775       -1.6215032212
 C         0.4551033584       -0.4818285458       -3.9106878403
 C        -0.3709138997        0.5699405140       -3.0500974968
 C        -1.8053903179        0.3125275528       -2.5923978743
 C        -1.9419082734        0.8739157221       -1.1301441720
 C        -3.1407996635        0.4952069161       -0.2744302311
 O         0.0587337785        1.7155764624       -2.9547689829
 O        -1.1592888101        1.6915169854       -0.7510658892
 C        -2.5874659398        1.1382715702       -3.6579091760
 C        -2.2653618680       -1.1297585789       -2.6148681326
 C        -4.4848152695        1.1475346749       -0.6035394684
 C        -5.7605343443        0.4833255891        0.2428945059
 C        -7.1038911047        1.3470996486        0.2588222628
 C        -7.4264153771        1.5106896148       -1.2170456527
 C        -8.3720110156        0.4475414538       -1.9462885131
 C        -8.1363236687        0.3542918157        0.9127829491
 C        -6.9642370026        2.6486762178        1.1168251644
 O        -5.6929414242       -0.6126075191        0.6884565683
 O        -6.9829834359        2.4040294165       -1.9036304106
 C        -9.8707834522        0.4344074085       -1.6282571830
 C       -10.5315272441       -0.5671113114       -2.6862314588
 C       -12.0349142108       -0.5595576227       -3.1590412971
 C       -13.0293734484       -0.5907752171       -1.8571299846
 C       -13.0139618534       -1.8054723008       -0.9817388263
 O        -9.7942370293       -1.4744344440       -3.0362359955
 O       -13.5522968177        0.4206209264       -1.5496841127
 C       -12.4911600885        0.6427247971       -3.9460701088
 C       -12.2228672802       -1.8024603551       -4.0554555678
 H         3.4148382608      -10.1045463369       -0.0433860134
 H         2.3959162177       -8.6359034572        0.1167237672
 H         3.6190115222       -8.8148291372       -1.1901206048
 H         3.2447368614       -7.0098271433        3.4081006438
 H         4.2641843394       -5.6344090840        3.3275452976
 H         6.7296017389       -7.3428415696        1.6918620752
 H         5.5562767177       -6.6922865918        2.8245613351
 H         6.4097347323       -5.7115888689        1.6255115963
 H         4.3885497253       -6.9415308616       -1.3668971970
 H         4.5672642559       -5.4446503112       -0.8461762611
 H         6.0190496863       -6.5023116968       -1.1858741685
 H         1.2969925898       -5.5464650714        2.4715570946
 H         1.5200290131       -5.4663386315        4.0918473341
 H         3.8793827270       -1.2792716334        3.4343786447
 H         2.8134967814       -1.0897702707        2.0693466749
 H        -0.5515651057       -3.3735333901        2.8502987247
 H         0.6450645096       -2.6570495244        1.7634201874
 H        -0.3822960212       -1.6270983861        2.8289000457
 H        -0.2784453352       -3.7215675642        4.8337664229
 H         1.3110460823       -4.1983862991        5.4757884995
 H         0.7034140702       -2.7909369334        6.0381709902
 H         3.9629960944        1.2383595003        2.8874579342
 H         2.9126427388        0.8873388457        4.3415679997
 H         2.4246630800        5.7866925260        2.5966325103
 H         3.7498473417        4.6451350746        3.1795791925
 H        -0.5417093542        3.8805624088        2.6656772457
 H        -0.7367625960        2.2903191350        3.1374282219
 H        -0.4236027974        2.6059455835        1.4677979808
 H         1.2017470178        2.3241249249        4.9715189826
 H         2.7132100968        3.0436549463        4.5108209150
 H         1.4030326171        4.1228203732        4.6874474408
 H         3.6677480238        5.6482568783        0.2694084791
 H         4.5310059047        6.4196738455        1.7226157035
 H         6.7408884924        2.5638677730       -1.1865912969
 H         5.2335301510        2.9879780669       -0.4677540772
 H         6.8315674475        7.2094605509       -0.3423672634
 H         7.8057543504        6.8581853775        1.0284972919
 H         6.1795711202        7.0693703000        1.2366140092
 H         8.7855328122        4.6764911691        0.2551644818
 H         8.0325504582        4.7788157245        1.7537811135
 H         7.8578020908        3.2884041491        0.7465644707
 H         6.0137297034        2.4893846023       -3.5138802544
 H         4.9078805103        3.9005387962       -3.0893194102
 H         1.7479073410        1.0465658868       -4.5388435909
 H         2.4312549646       -0.5751360123       -4.8097589781
 H         5.5747818914        0.7098671711       -4.1490086697
 H         4.1282018403        0.4618416790       -4.9612208785
 H         4.9151387820       -0.8444915636       -4.2991997749
 H         5.8831305439        0.2682381590       -1.7634944398
 H         4.3321388430        0.4640194604       -0.6853357258
 H         4.7463557912       -1.0906562013       -1.4260377224
 H        -0.0918246613       -0.6304981651       -4.8306193812
 H         0.4841641017       -1.3615299363       -3.3022417080
 H        -3.2803557519       -0.5747142623       -0.2271067390
 H        -2.8030854971        0.6796522323        0.7091270443
 H        -2.3178931046        2.2060814988       -3.5150843666
 H        -3.6986605014        0.9966693457       -3.4868162446
 H        -2.4859052602        0.7306660392       -4.6450429839
 H        -3.3480386442       -1.1471555013       -2.4162364233
 H        -2.3230102919       -1.4985862536       -3.6271752245
 H        -1.6873802656       -1.6417564703       -1.9131328835
 H        -4.7251803248        1.2020540499       -1.6683293689
 H        -4.3026124597        2.0919317997       -0.1906171718
 H        -8.2743813508        0.5528675257       -3.0476160702
 H        -7.9959973551       -0.6004465994       -1.7700942036
 H        -7.7740370483       -0.0540196267        1.8530325282
 H        -8.3415699403       -0.4984002247        0.2692058591
 H        -9.0343382616        0.8209975480        1.2540670732
 H        -7.9153732615        3.1784650511        1.0465126669
 H        -6.8203564319        2.2884809373        2.1060490260
 H        -6.1907548887        3.3434393463        0.8770294740
 H       -10.0466116457        0.1479027676       -0.6128454534
 H       -10.3545410129        1.4006382555       -1.7340965897
 H       -12.1271450760       -1.7015349624       -0.2934664952
 H       -13.9468266613       -1.7888092408       -0.4122015363
 H       -12.8379481994       -2.7244847980       -1.5949717440
 H       -11.7841662916        0.8206802866       -4.7837922977
 H       -12.4180941104        1.5657953687       -3.3271944268
 H       -13.5458987876        0.5683255558       -4.2664601455
 H       -13.2901238285       -1.9562266605       -4.2247006698
 H       -11.7932512579       -1.6870438212       -5.0877470943
 H       -11.8016352346       -2.6836433755       -3.5497691109
 Na        1.2766725162        2.1168186664       -0.8732116929
