155

 C        -4.1369387608       -8.1757054184       -8.4253138153
 C        -4.0285493552       -7.2184615671       -7.2737058428
 C        -2.7072297365       -7.3439951518       -6.3253973377
 C        -1.6911122412       -6.1723526711       -6.7077429301
 C        -2.1569090796       -4.7298355946       -6.7000456575
 C        -3.1752293793       -7.2764276685       -4.8345255108
 C        -2.1688991455       -8.7653987000       -6.6928263320
 O        -4.9051028166       -6.3475197776       -7.1428001603
 O        -0.6324327131       -6.4275033213       -7.1812568778
 C        -0.9356949500       -3.6915948608       -6.8606122085
 C        -1.4865836953       -2.2788426156       -6.9018102013
 C        -0.5432764876       -0.9961897796       -6.8126750726
 C        -0.8381156022       -0.3422024311       -5.3537930372
 C        -1.8926952547        0.8295498313       -5.2704406781
 O        -2.6521066608       -2.0004838293       -6.9934053493
 O        -0.3225173222       -0.8300220888       -4.3637758988
 C         1.0347367152       -1.4138967248       -6.8243488314
 C        -0.9592501823       -0.1282267734       -7.9591567030
 C        -1.0878234852        2.1194884056       -5.1251462740
 C        -1.7859557870        3.3106751691       -4.3849694411
 C        -0.8632048707        4.4127394802       -3.6875424164
 C         0.1268916162        3.5824642910       -2.8408638918
 C        -0.6194797116        2.7104885604       -1.7194949900
 C        -0.0068216116        5.2494743773       -4.7198138825
 C        -1.7827150737        5.4070253480       -2.9660551510
 O        -2.9485070455        3.4323544411       -4.3550690452
 O         1.3228489002        3.5168523055       -2.9612346436
 C        -0.1632875701        1.2404389125       -1.6037997059
 C        -0.6171476171        0.5940367605       -0.3069226799
 C        -1.3745092401       -0.7985111533       -0.3311409453
 C        -0.2609838437       -1.8142454708        0.2958009270
 C         0.6337661268       -2.6890011458       -0.5416707709
 O        -0.5700915965        1.2507866545        0.6921477529
 O        -0.1300941911       -1.9560647147        1.5257315502
 C        -2.6185974604       -0.5326983794        0.5917823601
 C        -1.8356841459       -1.3158391627       -1.7138005083
 C         1.8433328044       -3.1900023751        0.0932194450
 C         3.0411281595       -2.1881468198        0.0955917308
 C         4.4057061015       -2.6023875314        0.7699777753
 C         5.2502007572       -1.4205408617        1.3827101985
 C         4.5771542264       -0.8224079768        2.6496756271
 C         4.3373133698       -3.7240123530        1.8628357400
 C         5.2020000019       -3.3367756567       -0.3929985440
 O         2.9234139432       -1.1053888526       -0.4188843155
 O         6.2905190338       -1.0283006320        0.9247758743
 C         5.4535159798        0.1340008135        3.3910433077
 C         4.6474060294        1.1442946948        4.3025485543
 C         3.8511370072        2.3943430475        3.7960206312
 C         2.3308731664        2.0353167417        3.8532924718
 C         1.5000732985        2.1472151554        5.1520012534
 O         4.5800812143        0.9549933441        5.5256546025
 O         1.7724989393        1.5826126578        2.8601018243
 C         4.2160658703        3.5500452772        4.7826660095
 C         4.1685900009        2.8774948185        2.2885357136
 C         1.5211844778        0.9198125298        6.0665720896
 C         0.8068687600       -0.3744848075        5.5701339396
 C        -0.6597430605       -0.8566050534        6.2168614726
 C        -1.8348529389        0.1087238125        5.5952157556
 C        -2.8036981927        0.7497060671        6.6493386013
 C        -0.9601557442       -2.2803872007        5.8559932326
 C        -0.5406005515       -0.6712217873        7.8045962322
 O         1.2005734101       -1.0182595705        4.6382710605
 O        -1.9582757351        0.4462733897        4.4649139694
 C        -3.6712599382        1.8776531631        6.1370132771
 C        -2.8200804287        3.0480823825        5.5700346874
 C        -3.6526725408        4.4048463545        5.1589547267
 C        -4.3854607993        4.1852233684        3.7578988902
 C        -4.1761529672        5.2730481241        2.6368958399
 O        -1.6088889219        3.0465497523        5.5362123053
 O        -5.0758629146        3.2397572442        3.5558422406
 C        -4.7542091396        4.7226918783        6.2179858402
 C        -2.6160294033        5.5619404616        5.2666568457
 H        -3.2405120168       -7.9589248450       -9.0866457403
 H        -4.2212008990       -9.2091434727       -8.1140535702
 H        -4.9724476849       -8.0853158233       -8.9795487757
 H        -2.5689635702       -4.6647235688       -7.7316298807
 H        -2.9438646693       -4.5035098830       -5.9860596209
 H        -3.9059296939       -6.4913374353       -4.6662820285
 H        -2.2531228343       -6.9955641845       -4.2338967722
 H        -3.5579243281       -8.2099770070       -4.4677115351
 H        -3.0431338138       -9.4052236851       -6.7594235966
 H        -1.5361931028       -8.7510163290       -7.6229334703
 H        -1.4733296266       -9.0600097993       -5.8783899843
 H        -0.3148595582       -3.7867912654       -5.9642743063
 H        -0.4042738990       -3.9533643334       -7.7282247918
 H        -2.5721541306        0.8693206474       -6.0914949576
 H        -2.4086078146        0.7798268463       -4.3253202582
 H         1.7241763350       -0.5587787611       -6.7304762709
 H         1.1802647105       -1.8463522467       -7.8130603311
 H         1.2035796176       -2.1635584008       -6.1600815914
 H        -1.1239386594       -0.5932127430       -8.9022374590
 H        -1.9473205013        0.2902404672       -7.6202308382
 H        -0.3130376011        0.7120798323       -8.1569765043
 H        -0.6162313790        2.4504117346       -6.0634256681
 H        -0.2604829142        1.7605538284       -4.5392414377
 H        -0.3614463252        3.2230125802       -0.7705556603
 H        -1.7399326457        2.8947062923       -2.0064817059
 H         0.1671492345        6.2731768314       -4.3577890725
 H        -0.3919847287        5.4282441223       -5.6833714608
 H         0.9030952027        4.6902823165       -4.8756114839
 H        -1.2711405585        6.2241945564       -2.4411169971
 H        -2.5689821811        5.7487860102       -3.6748923756
 H        -2.3802532882        5.0392786356       -2.1155893916
 H        -0.5711739394        0.6971385709       -2.4938464385
 H         0.9388374620        1.3107499063       -1.6143615176
 H         0.0334595853       -3.5912825746       -0.7458926449
 H         0.8779767752       -2.1821562212       -1.5301422411
 H        -3.3692518252        0.0780193246        0.0719295088
 H        -2.3930180507       -0.2871548637        1.5878328119
 H        -3.1769604205       -1.5007048535        0.7485212090
 H        -0.9735261192       -1.6846519096       -2.3728991234
 H        -2.7532095465       -2.0232792083       -1.5711005890
 H        -2.3976477386       -0.4890777626       -2.2406929789
 H         2.1883628496       -4.1592154424       -0.3304574625
 H         1.6858042987       -3.4865668148        1.1172549546
 H         3.7200001694       -0.4402878605        2.1497389656
 H         4.1313267665       -1.5632198444        3.3985774849
 H         4.1026387353       -4.7094704385        1.5233428802
 H         3.6125198446       -3.4743718827        2.6799264003
 H         5.2615193488       -3.8281919474        2.3521839340
 H         6.0072932394       -2.6823425149       -0.7057834630
 H         5.6131764657       -4.3000865354       -0.0446982488
 H         4.5431394661       -3.3664499288       -1.2717008713
 H         6.1983809691       -0.4008822217        3.9605015064
 H         5.9770772813        0.8342104725        2.6515073878
 H         2.0217650018        2.8502562019        5.8051246693
 H         0.4784182754        2.3215069930        4.8868815834
 H         5.3001750119        3.4581423461        5.0511724736
 H         3.6827617118        3.5767147441        5.6988596582
 H         4.0158965770        4.5496934785        4.3225912772
 H         5.2659533899        2.9259731128        2.1264979411
 H         3.8262026546        2.0140934277        1.6554569117
 H         3.6328096207        3.7719535136        2.1857421660
 H         1.0828272141        1.2120208884        6.9921607988
 H         2.5499062276        0.6241045962        6.1406892765
 H        -3.4912430356        0.0166071456        7.1117547999
 H        -2.1423356872        1.2076559196        7.4400928997
 H        -0.3549610768       -2.9760214005        6.3318315201
 H        -0.7872137781       -2.4054314693        4.8025268016
 H        -1.9835465296       -2.7130987338        6.0530243431
 H         0.2916653314       -1.2975597745        8.1770423299
 H        -0.4959116041        0.3436817986        8.0216618150
 H        -1.4968468791       -1.0742907838        8.1484983234
 H        -4.4033800267        1.5915996341        5.2778265468
 H        -4.2595057096        2.2154822689        7.0111130264
 H        -4.8709248664        6.0942740888        2.7799913200
 H        -3.0791706556        5.5668568043        2.6000291691
 H        -4.3273118073        4.8392504096        1.6883033038
 H        -5.7724498558        4.6886139015        5.8567342022
 H        -4.6382349105        5.6944511977        6.6615287624
 H        -4.6826196744        4.1262942446        7.1429936981
 H        -2.0802041398        5.5063875287        6.2985526332
 H        -1.7915378084        5.2756425986        4.6064148234
 H        -3.0688080969        6.4840996922        4.8572626512
 Na       -0.2634438420        0.3228703624        2.8473331767
