155

 C        -0.0612817564       -7.1084086062       -9.1758606180
 C        -1.4691167459       -7.2355716153       -8.6640947355
 C        -1.7116588347       -6.9447764135       -7.1352524146
 C        -1.0436462304       -5.5168317136       -6.9251706214
 C        -1.9115133731       -4.2948076082       -7.3934597714
 C        -3.2711847015       -6.8543304330       -6.7453958385
 C        -0.9789767424       -8.0803495765       -6.3173023355
 O        -2.4787523015       -7.3731703812       -9.3940234370
 O         0.1247718056       -5.3540511926       -6.6034830453
 C        -0.9468458562       -3.0567277343       -7.6401727329
 C        -1.5980943841       -1.7216728405       -7.3376455959
 C        -0.8327439843       -0.3688140166       -7.3976551999
 C        -1.1748567863        0.3201544777       -6.0934437463
 C        -1.7352984043        1.7378346665       -5.9386678346
 O        -2.8097390438       -1.7022183850       -7.0086120504
 O        -0.8358599798       -0.2685267967       -5.0721111948
 C         0.6815805322       -0.5718346095       -7.4692304388
 C        -1.2134995005        0.4129988824       -8.6817065030
 C        -1.1010414749        2.5822644700       -4.7881231998
 C        -2.2693365900        3.3910136519       -4.0810187762
 C        -1.6690713775        4.3759025723       -3.0041083106
 C        -0.7962651263        3.6025012105       -1.9918666442
 C        -1.3753008468        2.5828031603       -1.0489622213
 C        -0.8839587153        5.5929405656       -3.5679756893
 C        -2.8168277090        5.0491699553       -2.1494842010
 O        -3.4364024153        3.0995987672       -4.1001991605
 O         0.4655122570        3.5695695045       -2.0301337139
 C        -0.6640576715        1.2497780679       -1.1866224430
 C        -0.9807304968        0.3212321796       -0.0442871919
 C        -1.2636167566       -1.2361097066       -0.2862251961
 C         0.0683938625       -1.9430677442        0.1471874119
 C         1.0277871691       -2.5602838461       -0.8020927712
 O        -0.9771139700        0.7577755725        1.0868193875
 O         0.4578296052       -1.8280580094        1.3088608683
 C        -2.5178328086       -1.6613626112        0.5790050461
 C        -1.5180512047       -1.5870856892       -1.7798838396
 C         2.3041539241       -3.1105334889       -0.1425240364
 C         3.3408664437       -2.0210473798        0.4010373762
 C         4.6604321094       -2.5020043939        1.1648012577
 C         5.3129345050       -1.3506697793        1.9871195320
 C         4.3888974346       -0.3472790602        2.7074768931
 C         4.3183656246       -3.5826034587        2.2531571627
 C         5.7137613562       -3.1297733243        0.1955324197
 O         3.1786531224       -0.8836152867        0.0455125867
 O         6.5136848835       -1.2112672534        2.0098573634
 C         5.1426660583        0.5165856155        3.7380856700
 C         4.2415684572        1.4505992553        4.5890760825
 C         3.4141029382        2.6347918442        4.0270381336
 C         1.9614729683        2.1297979106        3.8619347649
 C         0.8723093462        2.2703469076        4.9806199528
 O         4.0200608682        1.2490131828        5.7953757637
 O         1.7153050453        1.3190106624        2.9806535578
 C         3.4845346573        3.8387031234        5.0095515338
 C         3.9967817245        3.1015077280        2.6319067274
 C         1.1626748436        1.1614303205        6.0980501766
 C         0.6574246915       -0.3114078798        5.6624940205
 C        -0.5331924278       -0.9868734696        6.3485170091
 C        -1.8322282699       -0.1807494740        5.9004540866
 C        -2.7937441028        0.2932676795        6.8924200761
 C        -0.7743484120       -2.4524524450        5.8517072871
 C        -0.3498525382       -0.9473522338        7.8618194021
 O         1.0656122420       -0.8645314934        4.7035944834
 O        -2.0263854091       -0.0143126284        4.7066468537
 C        -3.7250912025        1.4745338983        6.4902497011
 C        -3.0034946639        2.6673372639        5.6878683000
 C        -3.9047753995        3.6175842820        4.7803445529
 C        -4.9398575197        2.7882437809        3.8742136121
 C        -5.0414959318        3.0713853775        2.4057575093
 O        -1.8792645432        3.0380388347        5.7794041031
 O        -5.7404485171        2.0314135121        4.3477190584
 C        -4.8682493959        4.4858685662        5.7425733689
 C        -3.0725407758        4.5886058575        4.0164149262
 H        -0.0721583613       -6.5315670388      -10.1873875757
 H         0.5288952618       -6.4519699379       -8.4968824236
 H         0.4563427974       -8.0123708606       -9.4388609883
 H        -2.4060555156       -4.4904947771       -8.3381682101
 H        -2.6727324068       -3.9912699040       -6.6739505903
 H        -3.8702724321       -6.6255249731       -7.6270743874
 H        -3.3393960483       -6.2675921891       -5.9383017113
 H        -3.6364755020       -7.8513790015       -6.4134358651
 H         0.0542940483       -7.9590767490       -6.1009585463
 H        -1.5062764167       -8.1529187291       -5.3798104595
 H        -0.9271951910       -9.1029010395       -6.6671913443
 H        -0.1824150972       -3.2154076437       -6.8154513446
 H        -0.4656915117       -3.1288122785       -8.6113985024
 H        -1.5907555590        2.2183569320       -6.8976554398
 H        -2.7494245380        1.4401349355       -5.8467664915
 H         1.2795385906        0.1706027464       -6.9386434108
 H         1.0024009634       -0.7128466195       -8.4714212045
 H         0.9103082132       -1.3926316151       -6.9284416751
 H        -0.9711884998       -0.1649528499       -9.5625683612
 H        -2.2830888748        0.5699609295       -8.6337088069
 H        -0.7746824848        1.4470440386       -8.7340114144
 H        -0.3654367475        3.2212580375       -5.2708325727
 H        -0.5746664749        1.9792445648       -4.0356436213
 H        -1.3255367470        2.9467848588        0.0769249011
 H        -2.4560015830        2.4770990850       -1.2488686634
 H        -0.2589145466        5.9779652209       -2.7160567248
 H        -1.6053530800        6.2664542248       -3.9107705899
 H        -0.2686996801        5.3662189513       -4.3972677052
 H        -2.4166736274        5.6334232327       -1.3538738069
 H        -3.4652023190        5.5081627984       -2.8509650974
 H        -3.4849135557        4.3469188108       -1.4981067002
 H        -1.0331901230        0.7951562866       -2.1129675625
 H         0.4266205088        1.4655212962       -1.4279846159
 H         0.5574228008       -3.4250608956       -1.2985718663
 H         1.2873720992       -1.9857241720       -1.7306380433
 H        -3.4579164939       -1.7575425620       -0.0402852104
 H        -2.6423947657       -1.0349958420        1.4058007289
 H        -2.4842142395       -2.7053774349        0.9039111100
 H        -0.7983199333       -1.1187692597       -2.5315984376
 H        -1.1008915672       -2.6661601490       -1.9277586566
 H        -2.5389944237       -1.5241248049       -2.3063717267
 H         2.8533899985       -3.8352724275       -0.7816824336
 H         2.0444507202       -3.7503960626        0.7400057530
 H         3.9282172370        0.4452481558        2.1378920246
 H         3.5100873061       -0.8500965046        3.1792569693
 H         4.0297693993       -4.5090783327        1.7312198222
 H         3.4933519923       -3.2536466389        2.8000139431
 H         5.1915584124       -3.8452199342        2.8951544085
 H         6.4003263134       -3.8901660812        0.6052336827
 H         5.1535091677       -3.5055645357       -0.6435418569
 H         6.3954192848       -2.3618291985       -0.1071653010
 H         5.7423546462       -0.0830387541        4.3949904918
 H         5.8552795263        1.1858391064        3.1924244346
 H         0.9625041228        3.2873372226        5.3615470012
 H        -0.0845782099        1.9586788638        4.5613543034
 H         4.5135378903        4.0341511867        5.2050130782
 H         2.9217558451        3.5015140300        5.9262025603
 H         2.9655686103        4.6943690138        4.6634201785
 H         4.8482896148        3.7762269868        2.7536315042
 H         4.3429459935        2.3345253530        1.9692575216
 H         3.2599626345        3.6099993896        1.9421111684
 H         0.7457896291        1.4821295833        7.0108851836
 H         2.2429217100        1.1672903780        6.1734086560
 H        -3.2815955070       -0.6643230604        7.1201451810
 H        -2.3008508863        0.3872806056        7.8615246562
 H        -0.5108088863       -3.1200098047        6.6056779109
 H        -0.3951073297       -2.7354406627        4.9471150582
 H        -1.8669099315       -2.7182045990        5.6030612925
 H         0.4634105147       -1.6091392526        8.1540685014
 H        -0.1525581640       -0.0879638597        8.4182066063
 H        -1.1723037969       -1.3772393450        8.4028950046
 H        -4.6158183488        1.1647266656        5.9461449670
 H        -4.0874206390        1.8294240832        7.4597268914
 H        -4.5992548624        4.0474109454        2.2215359649
 H        -4.5547420531        2.3409046277        1.7762314750
 H        -6.0335558135        3.1172989745        1.9106494536
 H        -5.0167553452        5.3282220565        5.2153456061
 H        -4.4555375424        4.7395764571        6.7291338728
 H        -5.7410680109        3.8862020985        5.9520156541
 H        -2.4431675694        5.1323449491        4.8083885809
 H        -2.3838940836        4.1493211854        3.2662842829
 H        -3.6570919102        5.2645015149        3.3913272003
 Na       -0.3171818295       -0.1230130139        2.9481984251
