155

 C         1.7394861012       -6.4129113764       -7.9693228171
 C         0.4236748428       -6.3091695558       -8.7107277032
 C        -0.8184652747       -6.3187504280       -7.8176463769
 C        -0.8826138970       -5.0189171893       -6.9266032201
 C        -1.4655792737       -3.6766498038       -7.3353365933
 C        -2.0124139080       -6.4240566547       -8.7877965915
 C        -0.7953197902       -7.5428594432       -6.8566420813
 O         0.3187233337       -5.9319944838       -9.8875534958
 O        -0.2898641881       -5.0414102164       -5.8694141706
 C        -0.5202110672       -2.5133139913       -7.2099490914
 C        -1.3390873372       -1.2035670277       -7.3584373690
 C        -0.8313309267        0.2143230499       -7.9667032212
 C        -0.6787892363        0.9882296841       -6.5678780486
 C        -1.9105135982        1.4424239997       -5.7346924550
 O        -2.4398417925       -1.0690681573       -6.8749162219
 O         0.4493476905        1.1893348645       -6.1178678393
 C         0.5080760863        0.1729947018       -8.7169817339
 C        -1.8043194755        0.8439571655       -9.0465810383
 C        -1.6948751114        2.5788236843       -4.7616446621
 C        -2.4762761115        2.6086345843       -3.4116487333
 C        -2.3902890855        3.8169994086       -2.5046646702
 C        -1.0059167725        3.6626218779       -1.8589209030
 C        -0.8976080151        2.7348356296       -0.6856891561
 C        -2.4422455061        5.1812137051       -3.2497293244
 C        -3.6185051840        3.7348643865       -1.5661870976
 O        -3.1728854219        1.6296417053       -3.0803426181
 O        -0.0147919060        4.2400471947       -2.2933502431
 C        -0.7325041492        1.2527114988       -1.2387809791
 C        -0.7610200561        0.2815900535       -0.0674032487
 C        -0.9082847828       -1.3304437609       -0.3222713930
 C         0.2286992991       -2.0824838191        0.3516957239
 C         1.1590569073       -2.8000505318       -0.5447352326
 O        -0.7994630945        0.6960320812        1.1009890097
 O         0.3908615081       -2.0674007450        1.5698590814
 C        -2.1773209130       -1.6667317808        0.5103660170
 C        -1.2175630191       -1.6834722229       -1.8405415601
 C         2.4541991383       -3.2774755519        0.1347568223
 C         3.3150682573       -2.0658358866        0.5775150707
 C         4.4754984893       -2.4549882512        1.4955441754
 C         5.1690335309       -1.1437424948        1.9980466228
 C         4.2541774785       -0.0693786925        2.6239032199
 C         4.0894121589       -3.1875657423        2.7783110365
 C         5.5473202561       -3.2897709354        0.8341745638
 O         3.0210949339       -0.9436427466        0.1453184343
 O         6.3158176949       -0.9307872650        1.7765254379
 C         5.0886211231        1.0071974589        3.3323130746
 C         4.2293247922        1.8112457110        4.3542511343
 C         3.0376639056        2.7660938755        3.8798889448
 C         1.6723978430        1.8959070874        4.0657229132
 C         0.9485801064        2.0820853911        5.3998087697
 O         4.3985416383        1.6045799211        5.5660299937
 O         1.2633591066        1.1672212135        3.1741397118
 C         2.9866905720        4.0718192962        4.7433926015
 C         3.1923539120        3.1262408422        2.4117232982
 C         1.2249203858        0.8048876090        6.3630032177
 C         0.7517282668       -0.4839680247        5.7196292696
 C        -0.5016633840       -1.1483962063        6.4462225236
 C        -1.7464674049       -0.3697098757        5.9664638299
 C        -2.9500162391       -0.1551969316        6.8520122404
 C        -0.7196721354       -2.5669780206        5.9688589237
 C        -0.4290549577       -1.0575515761        8.0130988300
 O         1.2713560592       -0.8936242439        4.7254268290
 O        -1.7995204549       -0.0247518559        4.7906802800
 C        -4.1714244856        0.4391104660        6.1555644896
 C        -3.8268213639        1.9963630949        5.6137976649
 C        -5.0002790364        2.8210796986        4.8775760840
 C        -5.2575768538        2.2438013825        3.4591694152
 C        -4.4939468152        2.7469103471        2.3667266082
 O        -2.7637861947        2.5629815260        5.7954480819
 O        -6.0330897235        1.3264809564        3.3511053778
 C        -6.3373257262        2.6611804656        5.5187784357
 C        -4.5722409362        4.3454407760        4.9285895520
 H         1.4202751223       -6.3307442105       -6.8832114405
 H         2.3455103847       -7.3362584518       -8.2366108160
 H         2.3149565831       -5.5497813416       -8.1451946187
 H        -1.8766208429       -3.6476114128       -8.3692196301
 H        -2.3705390886       -3.4797895465       -6.7879023147
 H        -1.9176419752       -5.7395886279       -9.6117719360
 H        -2.9277087187       -6.2283381909       -8.1808521632
 H        -2.1208489507       -7.4171061339       -9.1940373970
 H        -0.0620533997       -7.3674793305       -6.0645478370
 H        -1.8081232905       -7.7425929482       -6.4862363346
 H        -0.4663853512       -8.4633948912       -7.3093970181
 H         0.0480484042       -2.6026533293       -6.2943064368
 H         0.2809962091       -2.6150135516       -7.9501503233
 H        -2.6864126248        1.8088629900       -6.4815545419
 H        -2.3861738995        0.4901584359       -5.4020873763
 H         0.5397967162        0.9739369084       -9.4001316708
 H         0.5119121137       -0.7043082293       -9.3500991686
 H         1.3977293883        0.3785689056       -8.0784980191
 H        -1.4895087635        0.5330379637      -10.0645256572
 H        -2.7642883654        0.3880245996       -8.8701189941
 H        -1.8796975562        1.8834292888       -8.8405237925
 H        -1.9866195541        3.4463398301       -5.3483043854
 H        -0.5875811175        2.6844740530       -4.6134933898
 H        -0.0766042067        2.9798630291       -0.0950462248
 H        -1.7724919931        2.9537698215       -0.0749793923
 H        -1.6815022776        5.9017827571       -2.7392291322
 H        -3.4875002081        5.5148714604       -3.2542409020
 H        -2.0983664424        5.1322953026       -4.2688007179
 H        -3.3859167501        4.4426123815       -0.6930723654
 H        -4.5974980446        3.9477222576       -2.1173105217
 H        -3.5946290628        2.8025917910       -1.0923395335
 H        -1.5259929683        1.0026837351       -2.0027681009
 H         0.2462596355        1.3752677634       -1.7687788785
 H         0.5982588615       -3.6955412657       -0.9479144340
 H         1.4898395763       -2.2717173367       -1.4255721257
 H        -3.1279351158       -1.1093499620        0.0638185967
 H        -1.8197198887       -1.4201790093        1.5014623834
 H        -2.4181298293       -2.7471397379        0.3633335421
 H        -0.2685483927       -1.9014656327       -2.3416162270
 H        -1.7629006799       -2.6438410911       -1.8422949196
 H        -1.8136948948       -0.8329037911       -2.2116285159
 H         2.8874429612       -3.9568624509       -0.5842317535
 H         2.0976944118       -3.7416752065        1.0911082153
 H         3.5961152410        0.3798377715        1.8350893766
 H         3.6174317031       -0.4607050943        3.3331597397
 H         3.8926933997       -4.2131185771        2.5513499554
 H         3.1745812044       -2.6184535276        3.1619906702
 H         4.9585658633       -3.1292628985        3.4190839911
 H         6.2291360087       -3.6334138127        1.5684970906
 H         5.0243255293       -4.0434110928        0.2262741237
 H         6.1947329742       -2.6922823777        0.1881850675
 H         5.8237848438        0.4579721762        3.9889601828
 H         5.6276346428        1.7637287978        2.8133597226
 H         1.3808416826        2.8429907464        5.9808487431
 H        -0.1507017476        2.2324480949        5.1952174127
 H         3.8296323422        4.7334601864        4.5473067106
 H         3.0186798648        3.7592658741        5.7256846273
 H         1.9694650491        4.4615070892        4.6232079228
 H         4.2603388243        3.2659513873        2.1734365199
 H         2.6726008879        2.4212353599        1.7378142075
 H         2.6994945782        4.0511791546        2.2572951774
 H         0.8281767483        1.1238872460        7.3559856882
 H         2.3016250921        0.6694650707        6.5729463306
 H        -3.1105640335       -1.1186315687        7.3113883316
 H        -2.6847235191        0.6079134473        7.5674838776
 H        -0.2867044367       -2.6240398186        4.9299481175
 H        -1.8284770489       -2.7781146473        5.9544160176
 H        -0.0801248994       -3.0840530572        6.7110565521
 H         0.5359447186       -1.3751523016        8.2687704114
 H        -0.5816525055       -0.0201131209        8.4092850391
 H        -1.1520070324       -1.7688652554        8.3383277640
 H        -4.4527844740       -0.3092450963        5.4334810811
 H        -5.0401974712        0.4673834940        6.8332233709
 H        -3.4312189260        2.8221943340        2.5434677978
 H        -4.5390679680        2.1413171155        1.5014529299
 H        -4.7097878056        3.7873738819        2.1289753222
 H        -7.1705544456        3.1450666470        5.1258437731
 H        -6.3079169223        2.9827102432        6.5306657327
 H        -6.4716814852        1.6109315271        5.5837921566
 H        -4.7588949612        4.7716335655        5.8943992925
 H        -3.4134583227        4.4400047466        4.7908953217
 H        -5.2188234234        5.0165667897        4.2475687472
 Na       -0.1618950563       -0.5292499033        3.0120841078
