155

 C         2.1583516992       -6.3134585530       -7.8185838329
 C         0.8432762682       -5.8512707153       -8.5552333700
 C        -0.6077564733       -6.0543018992       -7.8987180778
 C        -0.7097953064       -4.8763741435       -6.8169520264
 C        -1.4873117622       -3.6381336899       -7.0312513295
 C        -1.5524429008       -6.0718297369       -9.1119540212
 C        -0.6810187219       -7.3727415091       -7.0363449457
 O         0.8986529054       -5.2028873298       -9.5990883434
 O         0.0776442960       -4.8946768034       -5.8988764284
 C        -0.7453908863       -2.3401597705       -7.3330986614
 C        -1.5845383399       -1.1005896764       -7.4481980585
 C        -0.7514497211        0.2404643582       -7.8434922391
 C        -0.6466797285        1.2857407725       -6.5680715765
 C        -1.7662148183        1.3890479563       -5.6187709268
 O        -2.8105781558       -1.2014532675       -7.2573314748
 O         0.4481749415        1.8117702459       -6.2433202503
 C         0.5968966249        0.1503171754       -8.5146714610
 C        -1.7603827099        1.0325075265       -8.8573066913
 C        -1.6695744891        2.6014837181       -4.7960506390
 C        -2.5673784835        2.5092209809       -3.4861048707
 C        -2.5773581848        3.7345353209       -2.4728026299
 C        -1.0714550517        3.5797470084       -1.9270263578
 C        -0.7340386795        2.5148506755       -0.8579507877
 C        -2.7923612569        4.9429532704       -3.3462232972
 C        -3.7296226491        3.4129957363       -1.5018598831
 O        -3.2369870138        1.4760819250       -3.3775122147
 O        -0.2012845693        4.2758715398       -2.4693364719
 C        -0.5038992900        0.9779598763       -1.3105989048
 C        -0.6741017112        0.0824274809       -0.0818531036
 C        -1.0702495213       -1.4283892913       -0.2147833149
 C         0.2197166889       -2.1877075883        0.3512516592
 C         1.0794941711       -2.9404220000       -0.6384020914
 O        -0.4184020101        0.5478442070        1.0111108966
 O         0.4398114743       -2.1270870975        1.5358711216
 C        -2.2854380601       -1.8728060814        0.6628287134
 C        -1.4010164848       -1.8394872322       -1.6678457876
 C         2.5139478244       -3.3012459025       -0.0241663415
 C         3.2285592010       -2.0975061776        0.5766858862
 C         4.3782157457       -2.3668554042        1.5236444062
 C         5.0823162159       -1.0052106389        2.0536513258
 C         4.1547455406       -0.0383598181        2.7691163346
 C         3.9367360305       -3.2489686118        2.7231336849
 C         5.5018207152       -3.2446805246        0.9050258595
 O         2.7737228047       -0.9898287910        0.2668573095
 O         6.2656156564       -0.9315900447        2.0431097596
 C         4.9176963822        1.1232526435        3.4457348080
 C         4.1208747159        1.9509247361        4.4314843437
 C         3.0118991307        2.9876954997        3.8865511217
 C         1.6334865633        2.1742183743        3.9415454449
 C         0.7648405026        2.0556828615        5.1596714239
 O         4.1417144088        1.7763628020        5.6572483986
 O         1.4135358169        1.4566788329        2.9937549641
 C         2.7567238891        4.2291835079        4.8058457128
 C         3.2321029772        3.5261411163        2.4796898942
 C         1.2598679966        0.7817988699        6.0847731628
 C         0.8343946131       -0.6592328183        5.6808847459
 C        -0.4814504703       -1.2571047213        6.4003297478
 C        -1.8188240636       -0.4897382643        5.9185044211
 C        -3.0670385261       -0.2385078655        6.8727497509
 C        -0.7905654975       -2.8031469245        5.9736411675
 C        -0.2473682052       -1.1044122919        7.9354981643
 O         1.4948500537       -1.3141949872        4.9574118597
 O        -1.8950549191       -0.1647630777        4.7563740155
 C        -4.2051524991        0.4304463518        6.0547167061
 C        -3.9427217895        1.8587161956        5.7466418608
 C        -5.1545782909        2.6561217412        4.9418097202
 C        -5.1286260082        2.0960704259        3.4395082139
 C        -4.1991606619        2.7191538521        2.4389017501
 O        -2.9872090305        2.5365058914        6.0051723085
 O        -5.6004023444        1.0162955546        3.2052765045
 C        -6.5528277323        2.1510911553        5.4675593193
 C        -5.0576432968        4.1341644781        5.1153453060
 H         1.9568159519       -7.1034579346       -6.9845783558
 H         2.8828991275       -6.6302060961       -8.6057683580
 H         2.5361691748       -5.4376921056       -7.3065506998
 H        -2.2686253621       -3.7595390980       -7.8250633964
 H        -2.1022221680       -3.4447494644       -6.1693427513
 H        -1.3832779282       -5.2124216339       -9.7516850156
 H        -2.5189849775       -6.2210982679       -8.8079457980
 H        -1.4503241082       -7.0087504395       -9.6239960981
 H        -0.3909785675       -7.1589901040       -5.9821674303
 H        -1.7252726964       -7.6967803963       -6.9348416700
 H        -0.0603940052       -8.1710620341       -7.4939345579
 H         0.0357123327       -2.1471308452       -6.5932689274
 H        -0.1429383858       -2.5816669692       -8.2421611274
 H        -2.7926221814        1.3005684634       -6.0410265377
 H        -1.7014457091        0.5164765775       -4.9556207391
 H         0.6190159635        0.8258351449       -9.3760851337
 H         0.7367091785       -0.7740555440       -9.0331158957
 H         1.3135565399        0.4856236378       -7.7976016333
 H        -2.1369945237        0.2826652332       -9.6597360781
 H        -2.6067035234        1.3747232240       -8.3061926293
 H        -1.1820233412        1.7352075652       -9.3392149769
 H        -1.9060647196        3.4047158667       -5.4248269193
 H        -0.6484449187        2.7877359456       -4.5174223832
 H         0.1002817424        2.9570780250       -0.4205904683
 H        -1.5046350034        2.4839709233       -0.0735048393
 H        -3.5230739022        5.6733861294       -2.8989097251
 H        -3.1352595571        4.5605084100       -4.2355166354
 H        -1.9437725913        5.5046631988       -3.5449811299
 H        -3.6772624031        3.9166247552       -0.5215366007
 H        -4.6422652031        3.6557500765       -2.0422301753
 H        -3.5932944019        2.3638415350       -1.3011824849
 H        -1.2269455622        0.7248319399       -2.1716300058
 H         0.5565657651        0.7477096339       -1.7340481474
 H         0.5674649218       -3.9063719324       -0.9795905817
 H         1.2386487365       -2.2569856816       -1.4649512214
 H        -3.1967770361       -1.2275786866        0.3537086324
 H        -2.0411349958       -1.6651580861        1.6647235515
 H        -2.2793739596       -2.9477774563        0.4363645992
 H        -0.6315964265       -1.4551318610       -2.3640280624
 H        -1.6801118561       -2.9222155971       -1.5260112912
 H        -2.2850016308       -1.1752630698       -1.8967184513
 H         3.2451844737       -3.7613937719       -0.7183334863
 H         2.2028076119       -4.0570663762        0.7840225967
 H         3.4670876772        0.4023279651        1.9590933228
 H         3.5450029877       -0.6686282669        3.2778145287
 H         3.5959083234       -4.2414540683        2.4264793227
 H         3.0109722489       -2.8296141352        3.2312661982
 H         4.8388729971       -3.2762774524        3.3673542791
 H         6.4172205142       -2.7861538469        1.2118142439
 H         5.4778452430       -4.2897596287        1.2799197534
 H         5.6183598698       -3.0975120535       -0.1936630640
 H         5.8373092363        0.7368086984        3.9024450976
 H         5.2064607126        1.7007027791        2.6227850545
 H         0.9337919535        2.9628173178        5.7027683076
 H        -0.2646735308        1.8009265797        4.9295110934
 H         3.6629613776        4.8378547974        4.9302317690
 H         2.4648140358        3.8986761454        5.7954071266
 H         1.9708288279        4.8380618757        4.2935016009
 H         4.0959345145        4.2029000521        2.5096154856
 H         3.3121584311        2.6838510176        1.8198099678
 H         2.4219705317        4.2389563705        2.2186854806
 H         0.7527251206        1.0129856813        7.0375419244
 H         2.3136804079        0.9251377875        6.3270283213
 H        -3.4507561282       -1.2550178732        6.9946589746
 H        -2.9704875367        0.2478921861        7.8427511838
 H        -1.6990708049       -2.7233361952        5.5150204462
 H        -0.9838466811       -3.3156380135        6.8836319919
 H         0.0225779654       -3.0522245647        5.2639033640
 H         0.7382493871       -1.2538367800        8.2105153856
 H        -0.5341975214       -0.0182719315        8.0928082585
 H        -0.9000601652       -1.7897211414        8.4173506511
 H        -4.2833764475       -0.0774275222        5.1237660454
 H        -5.1034103560        0.0466658881        6.5016322134
 H        -3.1504204581        2.6225534102        2.8053127656
 H        -4.1322745409        2.1934379621        1.5397634767
 H        -4.2316905838        3.8038530243        2.1132255994
 H        -7.2444197443        2.7134366015        4.9591226643
 H        -6.7137015706        2.2759092428        6.5532273481
 H        -6.7099660447        1.1023102266        5.2980773287
 H        -4.8701592898        4.4174288560        6.1690705292
 H        -4.3271338041        4.4668936751        4.2989477463
 H        -5.9510355472        4.5793258124        4.6653234607
 Na       -0.0901112066       -0.4594060842        3.0623574290
