155

 C         2.7848964545       -5.3217812144       -7.3019860271
 C         1.6322755503       -4.7124254727       -8.1628874146
 C         0.1087217577       -5.2547786069       -7.9204010455
 C        -0.2391811451       -4.4737891184       -6.5818600770
 C        -0.9842685811       -3.1321760474       -6.7092465351
 C        -0.7506692382       -5.0241762801       -9.1345696678
 C         0.1595242864       -6.7973617025       -7.5285100992
 O         1.8733636922       -3.7262877491       -8.8686075427
 O         0.0170018593       -4.9680098646       -5.5094990849
 C        -0.2804696989       -1.9202541032       -7.4642682521
 C        -1.3003273313       -0.8857960955       -7.9659315378
 C        -0.7739161640        0.6190395183       -8.3752802718
 C        -0.7491661095        1.1957319855       -6.9177593652
 C        -2.1316061092        1.3559352766       -6.2212266206
 O        -2.4740597376       -1.2533953459       -8.0425533180
 O         0.2680909777        1.5285759919       -6.3133685963
 C         0.6531197446        0.5914716404       -9.0061783250
 C        -1.8515435649        1.1963364266       -9.2437822463
 C        -2.2359526536        2.4456533016       -5.2430420077
 C        -2.9364549577        2.2107068942       -3.9554056802
 C        -2.8963755014        3.3096446629       -2.8743266123
 C        -1.5300262820        3.2650459961       -2.0897335330
 C        -1.3010722067        2.2964109889       -0.9430395618
 C        -2.9268018765        4.7940079768       -3.4283991772
 C        -3.9931161582        3.0742816792       -1.7728915721
 O        -3.2734695494        1.0757478818       -3.6036258285
 O        -0.5638673313        3.8262195126       -2.5298450869
 C        -1.2179300832        0.8497136372       -1.4129820687
 C        -1.1741559451       -0.0411839101       -0.1731468529
 C        -1.2020834912       -1.6883437557       -0.2756332004
 C         0.1456580305       -2.1985590484        0.3288983141
 C         1.2179304782       -2.7565431012       -0.6453825808
 O        -1.1297868796        0.4953597768        0.9224421104
 O         0.3854376820       -2.1783189961        1.5125574920
 C        -2.2900723769       -2.2609998599        0.7609715676
 C        -1.4137780312       -2.1124892566       -1.7469117639
 C         2.5762651569       -3.2882043966        0.0023850016
 C         3.2697890514       -2.0220172326        0.8076620168
 C         4.3361123238       -2.3128949431        1.9473768785
 C         4.9781328117       -0.9557396707        2.3902836060
 C         4.3936812653       -0.1217786046        3.4850885795
 C         3.6756701276       -3.0726797796        3.1112481857
 C         5.4140217556       -3.1576034466        1.1884026256
 O         2.8218254125       -0.9414618044        0.4647212072
 O         5.9439161484       -0.5938565329        1.7535805902
 C         4.5422393087        1.3865362571        3.3261231172
 C         3.7330346927        2.0289489967        4.4734802300
 C         2.5918087821        3.0352105755        4.1638782225
 C         1.3487898437        2.2087918934        4.2037680273
 C         0.4864562872        2.1568275524        5.5747188029
 O         3.9394845475        1.5866300848        5.5765491945
 O         0.9308454598        1.6578957172        3.2343373572
 C         2.7042173065        4.1151056712        5.3164142423
 C         2.8726667167        3.6546092276        2.7979640799
 C         0.8379226736        1.0886218574        6.6177431469
 C         0.7616716176       -0.4019607092        5.9566806639
 C        -0.2900988423       -1.4810531441        6.5729093910
 C        -1.6136735599       -0.9113504318        5.9273712717
 C        -2.8128919132       -0.6889572307        6.8089176686
 C         0.0789858860       -2.8102006910        5.8220631007
 C        -0.3061802398       -1.5677697538        8.1571057935
 O         1.2972503459       -0.5334967048        4.8844432896
 O        -1.6859166402       -0.7190250252        4.7644393217
 C        -4.1607596605       -0.2439261947        6.2661803643
 C        -4.1914119758        1.2137167417        5.8723749208
 C        -5.2164189377        1.8301011923        4.8710328265
 C        -4.4086756031        1.7633454845        3.3138456497
 C        -3.9615454932        3.1620099196        2.7366478120
 O        -3.3351279921        1.8801750883        6.3720854495
 O        -4.4790692063        0.8029486221        2.6228796607
 C        -6.5272381448        0.9665015632        4.6423771939
 C        -5.3351921982        3.2429885364        5.2899897661
 H         3.0130717165       -4.3800953214       -6.6637067052
 H         2.6413278436       -6.2948648964       -6.8147296136
 H         3.5761181321       -5.3900865446       -8.0189758198
 H        -1.8970145592       -3.1716841230       -7.2968545492
 H        -1.3181370478       -2.8263289070       -5.6865438864
 H        -0.8252211380       -3.9637956956       -9.3854901457
 H        -1.7721013896       -5.2586193088       -8.8590258578
 H        -0.3423413762       -5.5386205877       -9.9782261165
 H         0.9628684992       -6.8983898912       -6.7977124531
 H        -0.8912597946       -7.1266751496       -7.3669843768
 H         0.4605741543       -7.3099755630       -8.4246048417
 H         0.4681803369       -1.4117340243       -6.7935646829
 H         0.2682060395       -2.3144928523       -8.3291308765
 H        -2.8186973891        1.5946569771       -7.0441912744
 H        -2.5280384506        0.3974957956       -5.7858715404
 H         1.2793382593       -0.0704700680       -8.4447426658
 H         1.1410708470        1.6119708157       -8.9196409042
 H         0.6247249242        0.4608819412      -10.1070334021
 H        -1.6340581905        1.1757555089      -10.3494795885
 H        -2.7885585660        0.7041250284       -9.0164412791
 H        -2.0055394371        2.1910365784       -8.8369541726
 H        -2.6148815986        3.3548838027       -5.7518068844
 H        -1.2658209783        2.7066679511       -4.9449414898
 H        -0.3273389801        2.5317346376       -0.4601828762
 H        -2.0201622688        2.4292457996       -0.1565112668
 H        -3.2135911883        5.4604555721       -2.5290282036
 H        -3.6729585141        4.9142274604       -4.1427136343
 H        -2.0505789604        5.2264259302       -3.7547657832
 H        -4.0616035653        4.0146007991       -1.1780464021
 H        -4.9903545250        2.8613385564       -2.1911022449
 H        -3.7885863119        2.3165541401       -1.1071346707
 H        -2.2081816434        0.6694714758       -1.9870545189
 H        -0.4400179544        0.7563028297       -2.1588133058
 H         0.8224296809       -3.3904177365       -1.4321009498
 H         1.6767094621       -1.8476624588       -1.1906798113
 H        -3.3125422554       -2.3316336180        0.2414093164
 H        -2.2946630595       -1.7002885582        1.7098698431
 H        -2.0479372464       -3.3614743316        0.9075758129
 H        -0.7211452250       -1.6153765668       -2.4892912716
 H        -1.1823597928       -3.1769975962       -2.0435680583
 H        -2.5037962800       -1.8604519328       -2.0428684943
 H         3.2289661632       -3.7570091170       -0.7771471902
 H         2.4925287069       -4.1118877196        0.7310236119
 H         3.3166876871       -0.3133162065        3.5355504833
 H         4.7476763596       -0.3983611887        4.4240533145
 H         3.3265482595       -4.0679600625        2.9279428809
 H         2.8759999366       -2.5162473876        3.6929297240
 H         4.4941212750       -3.2161701098        3.7940697553
 H         6.4355087582       -3.1412708257        1.6473081789
 H         5.0492967804       -4.1999740231        1.0680396540
 H         5.5213859609       -2.8416904561        0.1587527320
 H         5.5589354125        1.7275727099        3.5199103486
 H         4.2769591550        1.7274018831        2.3225529704
 H         0.5617452917        3.1259136612        5.9163209310
 H        -0.5962735795        2.1266318958        5.2511544457
 H         3.6151577740        4.7395594558        5.1361104523
 H         2.7223619917        3.7603136080        6.3144457982
 H         1.8000914628        4.7883384938        5.3486839237
 H         3.9293370337        4.0889411586        2.8240522284
 H         2.6916124357        2.9854630556        1.9112327951
 H         2.1932684809        4.4791537498        2.7221159021
 H         0.1014660190        1.0922120336        7.4431064244
 H         1.8836621417        1.2157122112        6.9323833510
 H        -2.9903230162       -1.6402917438        7.2979902112
 H        -2.5060392792       -0.0569874576        7.6518313668
 H        -0.7312287638       -3.4382591572        6.0024535615
 H         1.0004464583       -3.0907716382        6.3137898577
 H         0.3144781466       -2.5881321121        4.7727914404
 H         0.4700193395       -2.2519470108        8.4892303743
 H        -0.1561560080       -0.6102620671        8.7262592265
 H        -1.2536559910       -1.9906487533        8.4892493175
 H        -4.5148231942       -0.8702991167        5.4673702270
 H        -4.8891022087       -0.3436743022        7.0756856437
 H        -3.3079310971        3.9208179188        3.2337594403
 H        -3.6616476595        3.0220698114        1.7163554590
 H        -4.8844678851        3.7354685142        2.5248631702
 H        -7.2676726538        1.3729441863        4.0789490069
 H        -7.0769772684        0.9108915800        5.5808461014
 H        -6.2492973826       -0.0229557990        4.3202134525
 H        -6.0974320576        3.3587664939        6.0639637892
 H        -4.3269057485        3.6270845059        5.7378049752
 H        -5.7968774487        3.7596616358        4.4248704055
 Na       -0.0339066308       -0.4505133493        2.8546601655
