155

 C         3.1871922164       -9.0787228075       -1.0973136709
 C         4.0046945986       -8.9827398112        0.1941944341
 C         4.4176375114       -7.4944510045        0.6511969663
 C         3.2204604000       -6.7084740215        1.1706198050
 C         3.4303623963       -6.0255553939        2.5121573548
 C         5.5931399620       -7.6335934673        1.6149676333
 C         4.7900398461       -6.6573804115       -0.5463557292
 O         4.2212961831       -9.9284700339        0.9371889576
 O         2.0951631210       -6.5328092343        0.6244263392
 C         2.2376750547       -5.1694337600        2.9082943466
 C         2.6628138345       -3.6705527808        3.1044580868
 C         1.5044640723       -2.7755545202        3.6059323248
 C         2.0066149285       -1.2845771709        3.9262534114
 C         2.8346994339       -0.4787816911        2.8217147746
 O         3.7366612783       -3.3204146273        2.6608822729
 O         1.7261593750       -0.9002779918        5.0369402469
 C         0.5689435397       -2.5673916755        2.3723514854
 C         0.8529191131       -3.4061318413        4.8594397909
 C         2.7067241056        0.9317057605        3.1140892155
 C         2.0449613820        1.7538642362        2.0466005756
 C         1.5075978629        3.2586098047        2.3604830534
 C         2.3216402822        4.1136472743        1.4165843259
 C         3.3674687874        5.2060780464        1.9252864734
 C         0.0064609400        3.3872385432        1.9061361519
 C         1.5166248982        3.6320020327        3.8417490393
 O         1.8940854669        1.3321947767        0.9204332973
 O         2.3265977090        3.8697338475        0.2239825219
 C         4.4174893783        5.4918893010        0.8673637366
 C         5.7946286190        4.7735554038        1.0812160954
 C         7.0117712733        5.2201639608        0.1620644976
 C         6.4917163419        4.6773795778       -1.2280257675
 C         6.6242347021        3.1809598060       -1.5536513315
 O         5.8947509395        4.0585951249        2.0528735769
 O         5.8768893739        5.3509198351       -2.0305714372
 C         7.3088612210        6.7000659566        0.2191496579
 C         8.2494655811        4.5208372987        0.5731079817
 C         5.6263204791        2.7836857315       -2.7326566659
 C         4.4250283896        2.0198157737       -2.3141861070
 C         4.2505174435        0.3722949510       -2.6318553814
 C         2.7465365512        0.0201916084       -2.4807824003
 C         1.8610388778       -0.1249528417       -3.8020404806
 C         4.7836113148        0.1442437226       -4.0660453146
 C         4.8971952238       -0.5117646009       -1.5803652691
 O         3.5405254798        2.5743388841       -1.6797831853
 O         2.2512015394       -0.0310929553       -1.3574584702
 C         0.3911127517       -0.4848900285       -3.6350146411
 C        -0.5195658631        0.6858469512       -3.0758253947
 C        -2.0822852076        0.4915386518       -2.7211471904
 C        -2.1443421618        0.7027526356       -1.1136065149
 C        -3.4974557685        0.2918292732       -0.4660981299
 O        -0.1283014915        1.8363648549       -2.8610212990
 O        -1.2953036888        1.2549527258       -0.4867315854
 C        -2.9305685014        1.7606070889       -3.2565083480
 C        -2.7014608938       -0.9474062009       -3.1239420274
 C        -4.7146586642        1.1552985885       -0.5705918634
 C        -5.7515291597        0.7341245414        0.5639830658
 C        -7.2071307312        1.4808982969        0.4227809994
 C        -7.7107082639        1.4669951960       -1.0871742061
 C        -8.5288126050        0.2777981580       -1.5323651076
 C        -8.1652736174        0.7460049982        1.4505549093
 C        -7.0374013988        2.9515489502        0.8224257252
 O        -5.4845806082       -0.1470338601        1.3610336718
 O        -7.5294550272        2.3998280794       -1.8878039533
 C       -10.0085152530        0.6554315203       -1.8572986365
 C       -10.6805221933       -0.6828156222       -2.3736502806
 C       -12.2213347480       -0.6370299935       -2.5145757554
 C       -12.7562595792       -0.7039877724       -1.0035146028
 C       -12.8998877298       -2.0954031298       -0.2194309141
 O        -9.9927600702       -1.6440147689       -2.6207560435
 O       -13.0779746868        0.3334076993       -0.4114092085
 C       -12.4988543401        0.6688317958       -3.2642811828
 C       -12.8032239709       -1.8976784248       -3.2378550714
 H         2.2943536124       -9.6948535564       -0.8804263712
 H         2.7231552855       -8.1170894043       -1.3934331323
 H         3.8438459708       -9.4120998946       -1.8694256777
 H         3.7324194766       -6.8883815832        3.1783196250
 H         4.3987283320       -5.5632105731        2.6738977768
 H         6.2887278297       -8.3308070405        1.0732942083
 H         5.3206827263       -8.1318475847        2.5048531306
 H         6.0647562624       -6.7655737120        1.9050024042
 H         4.0916717640       -6.8077571369       -1.3568803182
 H         4.9111926537       -5.6270224230       -0.3027915886
 H         5.8218596485       -6.8511207833       -0.8670357346
 H         1.5614599068       -5.3676027468        2.0940233032
 H         1.7864507719       -5.6264014959        3.8079698160
 H         3.8907089676       -0.7797557225        2.9066788103
 H         2.4794507076       -0.8969389448        1.8558375877
 H        -0.1758408356       -3.3504313069        2.2505904901
 H         1.2953472224       -2.5678196001        1.4605863030
 H         0.1199623893       -1.5522696268        2.3484451510
 H        -0.0475203489       -4.0817465858        4.7721091153
 H         1.6228685112       -4.0214005515        5.2789225940
 H         0.5163859993       -2.6240048662        5.4806616948
 H         3.7019067968        1.5375525086        3.2124890356
 H         2.1205050383        1.1396897649        4.0472661925
 H         2.7871618874        6.1474392499        1.9704553076
 H         3.6363333593        4.8643240344        2.9133375230
 H        -0.1680379665        4.4786026377        1.7412176703
 H        -0.7206329476        3.0099916758        2.6961230440
 H        -0.1454812422        2.9173595798        0.9959681729
 H         0.7246427046        3.0227811049        4.3292091805
 H         2.5064423441        3.3850257155        4.2248504017
 H         1.2324016493        4.6331135388        4.0237921092
 H         4.0770856590        5.2691157829       -0.1189910406
 H         4.7096671303        6.5569330899        0.7609015846
 H         7.5577814352        2.8694496242       -1.8466972483
 H         6.3550097978        2.5429643131       -0.7122249942
 H         6.4974452209        7.3711514681        0.5225024419
 H         7.5208303765        6.9750419402       -0.8475580237
 H         8.1112383772        7.0140839262        0.8468857583
 H         9.1071952079        4.7153295008       -0.1280716872
 H         8.5129379173        4.9828481544        1.5170149511
 H         8.1869417426        3.4684319563        0.7902134216
 H         6.2992519834        2.3266034426       -3.4246685702
 H         5.3959588081        3.6863207796       -3.3531693048
 H         2.0296406657        0.6981182074       -4.4287779708
 H         2.1882724378       -0.9844886313       -4.3996337349
 H         5.9599875154        0.1352826902       -3.9511419186
 H         4.5592873896        0.8480402947       -4.9167808982
 H         4.5859319864       -0.8964168714       -4.3418946648
 H         5.9717375264       -0.3776696374       -1.5078261724
 H         4.4435658260       -0.4201751947       -0.6294457333
 H         4.6979567620       -1.5459531169       -2.0205045962
 H        -0.0174100429       -0.7849947176       -4.6461128120
 H         0.1097393773       -1.3146095746       -2.9638607647
 H        -3.7087074217       -0.7048949042       -0.8866823224
 H        -3.2991471187        0.2938763951        0.6119723994
 H        -2.3383212665        2.7037846770       -3.1392458260
 H        -3.7760172872        1.8369106023       -2.6593108027
 H        -3.1121441498        1.6955624309       -4.2817244144
 H        -3.7331680131       -0.9001561797       -2.9358094959
 H        -2.2528832307       -1.1503001577       -4.1594563100
 H        -2.3032422258       -1.7230300143       -2.5212457649
 H        -5.2856455071        1.0775765475       -1.5155094252
 H        -4.7038733589        2.2291780964       -0.4187799800
 H        -8.1748201372        0.0293413117       -2.5308187011
 H        -8.4643002873       -0.5616904950       -0.8876382599
 H        -7.9064590660        1.1877681849        2.4694535221
 H        -8.0878186016       -0.3106878156        1.6591574130
 H        -9.2264903687        0.9687319616        1.2621577027
 H        -7.9481565938        3.5030800371        0.5654766751
 H        -6.9712286233        3.1314912489        1.9533218414
 H        -6.1707545568        3.4785935736        0.4002531270
 H       -10.4100178644        1.0456295205       -0.9185091107
 H        -9.9764464001        1.5137510670       -2.6208719664
 H       -12.1371211449       -2.7922255092       -0.5190796069
 H       -12.7858989920       -1.9159758248        0.8524814391
 H       -13.8616164400       -2.4573865930       -0.4056447230
 H       -12.3109877572        0.4838004644       -4.3284151319
 H       -11.9437510325        1.4644213377       -2.8419319817
 H       -13.5215670731        1.0134747478       -3.2991313903
 H       -13.8512412753       -1.9739356504       -3.0628159618
 H       -12.6049094735       -1.8599191028       -4.2688466024
 H       -12.2934965485       -2.8261058127       -2.8662384189
 Na        1.3412762289        2.3238956552       -1.1783970570
