155

 C         4.5117339321       -0.7956154999       -5.2709969018
 C         3.8419396905       -1.0665255346       -6.6855538735
 C         3.4264150256       -2.5432869406       -6.8820937664
 C         1.8871704863       -2.6034883211       -6.3833220030
 C         0.6339687130       -2.2503102497       -7.1740927706
 C         3.4854253063       -3.0766591174       -8.3554410825
 C         4.1982838457       -3.5913196438       -6.0768878830
 O         3.6382070931       -0.2000973264       -7.4968455537
 O         1.7539420510       -2.9581196037       -5.2395992425
 C         0.6289018573       -0.9020242531       -7.8144519711
 C        -0.7796498865       -0.7550172653       -8.5533321121
 C        -1.0664232067        0.7228485779       -8.8859042285
 C        -1.5762103001        1.5547187385       -7.6798605385
 C        -2.6184013578        0.9134795622       -6.7486526075
 O        -1.4698350007       -1.7068431259       -8.7745256186
 O        -1.1309204281        2.6447497452       -7.3227402335
 C         0.1500194875        1.4328173845       -9.4975918121
 C        -2.3300731689        0.7917964871       -9.8158304709
 C        -3.1965839191        1.7686728721       -5.6821770105
 C        -2.8959240200        1.3605659049       -4.3012223603
 C        -3.4308198761        2.2583291828       -3.1491578518
 C        -2.0867236229        2.5883234587       -2.2878287262
 C        -1.7464595928        1.8392224302       -1.0145214430
 C        -4.1115725876        3.5173313158       -3.6448051955
 C        -4.5079563720        1.3282814007       -2.3004306704
 O        -2.4484578381        0.2619181834       -3.9514967443
 O        -1.3832182748        3.4230717424       -2.8393766709
 C        -1.2572089945        0.4018392811       -1.2364817091
 C        -1.1102677269       -0.3513001717        0.0397714338
 C        -1.0190469580       -2.0022932666        0.0248024002
 C         0.3967941506       -2.2801979513        0.7114449104
 C         1.5020991625       -3.0213768495       -0.0021728690
 O        -1.1310719965        0.2654655504        1.0703041722
 O         0.6090372598       -2.0895473701        1.9150699033
 C        -2.1688075257       -2.4737010462        0.9395358592
 C        -1.2003406012       -2.7594983274       -1.3703149280
 C         2.9363039993       -2.8867056808        0.7159103888
 C         3.4148846064       -1.3748015761        0.6332968688
 C         4.8988527973       -0.8704806386        0.8396736612
 C         4.9605694546        0.5358838641        1.5368865338
 C         4.6315567657        0.6278350397        3.0572436035
 C         5.8377791735       -1.9105961318        1.6250508161
 C         5.4204206841       -0.7973578202       -0.5724825155
 O         2.5956401720       -0.4614980124        0.5708538969
 O         5.4828096400        1.4606727091        0.9474998616
 C         3.6155183508        1.6709900084        3.4101247049
 C         3.4127262123        1.8332853067        4.8735699354
 C         2.1087739720        2.6136634886        5.4753422349
 C         0.8483332962        1.8867899158        5.1032224821
 C        -0.2255624805        1.5466571627        6.1308523950
 O         4.1797981018        1.4703865542        5.7025824169
 O         0.6912199618        1.6082886714        3.8941771755
 C         2.3819019886        2.6655056545        7.0721567358
 C         2.0184347800        4.0007746874        4.8192729757
 C         0.0382049921        0.1582932876        6.9904747451
 C         0.1398803035       -1.0481483402        6.0591440062
 C        -0.8500931908       -2.2916317035        6.0125280164
 C        -2.2394686946       -1.7411193661        5.5174355191
 C        -3.4855799904       -2.1854864356        6.2947436380
 C        -0.2641919222       -3.3229542120        5.0280035473
 C        -0.8244722898       -3.0022745894        7.3930210914
 O         1.0186434164       -1.0612963827        5.1766474043
 O        -2.3102606084       -1.1269566588        4.5171031385
 C        -4.7315643497       -2.0449603370        5.4139576251
 C        -5.3532025292       -0.6662004853        5.5541587185
 C        -6.4953902744       -0.1613965593        4.5318455839
 C        -5.7816030083        0.0301015084        3.1412865947
 C        -5.8242713657        1.4423856649        2.3836363569
 O        -4.9139735677        0.2342364122        6.1685827975
 O        -5.3215354490       -0.9547724366        2.6080075398
 C        -7.5112601302       -1.2269773926        4.3595260861
 C        -7.1448809330        1.1133270710        5.1437324407
 H         3.7412856697       -1.0803112117       -4.6292966647
 H         5.4225614424       -1.4560860805       -5.2628011904
 H         4.9356913639        0.1530417080       -5.2113380570
 H         0.5662508897       -2.9978543241       -8.0460132899
 H        -0.2354694988       -2.4653163291       -6.5781706425
 H         3.1213068436       -2.3281960810       -9.0896243785
 H         2.9186815997       -3.9674531440       -8.3493458779
 H         4.4865989908       -3.4644928862       -8.6502554852
 H         3.8783510577       -3.7348661292       -5.0213765574
 H         3.9055518119       -4.5917591410       -6.4897439488
 H         5.2720963861       -3.5278776076       -6.0334502724
 H         0.5985437759       -0.1318223712       -7.0422777367
 H         1.4960866102       -0.7230674708       -8.4546330840
 H        -3.4103074483        0.5849889374       -7.4060678687
 H        -2.1978616540        0.0068435659       -6.3586664568
 H        -0.0041348842        1.9311088425      -10.5171095757
 H         1.0446875801        0.8658762370       -9.3949551641
 H         0.3635138328        2.2641386834       -8.8725660045
 H        -2.0363728476        0.2935664056      -10.7472150764
 H        -3.2500605837        0.1903424585       -9.4611223349
 H        -2.6151569592        1.7910859743      -10.0332609649
 H        -4.3141853374        1.7206792254       -5.6991104333
 H        -2.8684959910        2.8055752093       -5.8156373025
 H        -0.9093462184        2.3568552642       -0.6042515276
 H        -2.5266521255        1.7362356135       -0.2602662968
 H        -4.5472989126        4.0082221062       -2.8165299685
 H        -4.9886691857        3.3619192259       -4.3295938583
 H        -3.2740447092        4.1686261995       -3.9768237587
 H        -4.4967912539        1.7114978537       -1.3114098351
 H        -5.4153308430        1.3259076577       -2.8030802731
 H        -4.1599712838        0.2716730621       -2.1786164618
 H        -1.8594816378       -0.1272218756       -1.9492364992
 H        -0.2528096291        0.3447042964       -1.7649003507
 H         1.1898743872       -4.0369679880       -0.2465664303
 H         1.5596636464       -2.4940150779       -0.9392594496
 H        -3.1033686576       -1.8734886581        0.7650261644
 H        -2.0758094583       -2.4101736744        2.0168653217
 H        -2.3611460433       -3.4635633134        0.5978154448
 H        -0.6789515818       -2.2394228969       -2.2198960594
 H        -0.8800934333       -3.8514455133       -1.2285562486
 H        -2.3025965138       -2.7676691711       -1.6277244859
 H         3.6428125760       -3.5787015153        0.3084772574
 H         2.8304214030       -3.0777962658        1.7856028614
 H         4.2806570997       -0.3063339648        3.5709373773
 H         5.5867838388        0.9529740950        3.5773080208
 H         5.9767136813       -2.8280912347        1.0608031188
 H         5.4498881866       -2.2234688168        2.6326624948
 H         6.8332614276       -1.5277217400        1.6404520128
 H         6.5231618099       -0.6990917525       -0.5745808992
 H         5.1660445831       -1.7306001737       -1.0402505737
 H         5.1014291881        0.0917472686       -1.1277150678
 H         3.7374131657        2.6515533827        2.9373746105
 H         2.5491853014        1.3173931053        3.0188227271
 H        -0.0202465407        2.3291505692        6.8863776487
 H        -1.2607425378        1.5073970874        5.8090817105
 H         3.2761388236        3.2371571681        7.2490431327
 H         2.4624030494        1.6740058766        7.4113893827
 H         1.5170770956        3.0958462582        7.5626396519
 H         2.8774905769        4.6420179110        5.1158644372
 H         2.1594205171        3.7702848273        3.7691610002
 H         1.1747221497        4.5801438336        4.9920108048
 H        -0.7037632556        0.0387467184        7.7851178254
 H         0.9587640326        0.2564183326        7.5597834255
 H        -3.2559813021       -3.2265273292        6.5831679683
 H        -3.6353370445       -1.6208144911        7.2223553144
 H        -0.3564803865       -3.2014514201        3.9490501552
 H        -0.7506407216       -4.2379068089        5.1827792698
 H         0.7393173844       -3.5233595231        5.2875008380
 H         0.1643600468       -2.9906051288        7.7097885493
 H        -1.4270930541       -2.2977024187        8.0012117596
 H        -1.2920952850       -3.9583736481        7.3007166358
 H        -4.5408392257       -2.1849604862        4.3470066803
 H        -5.4211922549       -2.7988170673        5.7868540935
 H        -5.1556695494        1.4710293274        1.5389411047
 H        -6.7971906158        1.6241412282        1.9581399414
 H        -5.4622576065        2.3036506133        3.0271199383
 H        -8.2928096110       -1.0294989767        3.6515653149
 H        -8.0674127613       -1.5496675592        5.2400221169
 H        -6.9323770894       -1.9996264847        3.8875079455
 H        -7.5040444456        0.9611509912        6.1502726196
 H        -6.5551952508        2.0183632916        5.1895559329
 H        -8.1066702154        1.3332790170        4.6843359165
 Na       -0.4275660539       -0.4913112702        3.0992574496
