155

 C         5.1609303692        0.7600668957       -5.0940415998
 C         4.7692209710        0.0777594615       -6.4074221055
 C         4.1286991990       -1.3502872719       -6.2596917418
 C         2.7312749694       -1.2933610259       -5.5463655420
 C         1.3866415396       -1.6465806648       -6.2222233741
 C         4.0232135979       -1.9701082416       -7.6333981032
 C         5.2513085349       -2.2014633338       -5.5466470110
 O         5.0908414474        0.4984191290       -7.4949327318
 O         2.7228121363       -0.8729781851       -4.4284458273
 C         1.1124811627       -0.5965044532       -7.3647733547
 C        -0.2930338955       -0.8130034082       -8.1159439084
 C        -1.1770337965        0.3806861182       -8.6858530752
 C        -1.6121523513        1.3830351704       -7.5666224985
 C        -1.8151554892        0.7818144205       -6.1997144192
 O        -0.7300639577       -1.9212819982       -8.2323449353
 O        -1.5755474087        2.5745319838       -7.5605335361
 C        -0.3591966498        1.1506588951       -9.8174130186
 C        -2.4461935507       -0.2917473470       -9.2850198482
 C        -2.6836534180        1.6976982522       -5.3433787579
 C        -2.9900844808        1.0592352300       -4.0302433510
 C        -3.3879896902        1.9797050302       -2.8185467718
 C        -2.0076960204        2.5946297858       -2.2824903278
 C        -1.4854043758        1.9683976642       -1.0443992375
 C        -4.2576171070        3.2023687946       -3.3116911602
 C        -4.0958841401        1.0532651798       -1.8641186534
 O        -3.0347091218       -0.1753314639       -3.8968122431
 O        -1.4967442432        3.4655295879       -2.9629238508
 C        -0.9170228160        0.5215170605       -1.2867372960
 C        -0.8658926263       -0.3367634864       -0.0915897175
 C        -0.5210246018       -1.9074288711       -0.3598284069
 C         0.8635561512       -2.1532931218        0.2850389184
 C         2.0999145823       -2.7141562044       -0.3375763998
 O        -1.0312903482        0.1487012824        1.0323854513
 O         0.9276966348       -1.9423496877        1.4881405726
 C        -1.6255540612       -2.8512708449        0.0914756618
 C        -0.2623133926       -2.2088555760       -1.8820332811
 C         3.5543647675       -2.2710962114        0.0188531584
 C         3.6110248084       -0.7648133713       -0.2564193108
 C         4.9058491305        0.0209965721        0.1846819748
 C         4.4712887738        0.9827549501        1.2989305058
 C         3.6816248813        0.4537226298        2.5280234417
 C         5.8960427257       -0.9267063534        0.9624356427
 C         5.5302611106        0.7121135486       -0.9707305329
 O         2.6378645110       -0.1652979539       -0.5825401964
 O         4.5272428270        2.1731037823        1.1328412996
 C         3.2733301786        1.6420661379        3.3559555284
 C         2.7188639980        1.3012014437        4.7115342167
 C         1.5845814241        2.2766199000        5.3840790560
 C         0.2622116682        1.4283484535        5.2786913856
 C        -0.4852154803        0.7817905546        6.5523366358
 O         3.1355505766        0.3830877951        5.3508094161
 O        -0.1663811202        1.2194497095        4.1742570848
 C         2.1178762748        2.5752094301        6.7757124369
 C         1.3062555695        3.6581169826        4.5172931350
 C         0.2183217725       -0.4118612477        7.0144301886
 C        -0.0473344869       -1.6364545229        5.8735025258
 C        -1.1448686480       -2.7546799220        6.2512819490
 C        -2.4550449009       -2.3171468839        5.5710826799
 C        -3.8230303434       -2.7868045981        6.1422658425
 C        -0.6460618532       -4.0963831706        5.6718752606
 C        -1.4212721657       -2.8722598187        7.8392007869
 O         0.5672014132       -1.6970859360        4.8322317105
 O        -2.4899762682       -1.6568258108        4.5661459554
 C        -4.8758502863       -2.5019449526        5.0254215821
 C        -5.6080666914       -1.1819968435        5.3131215038
 C        -6.8942414415       -0.8767104400        4.4562810602
 C        -6.3895929063       -0.4649200356        2.9648239504
 C        -6.6107292528        0.9278380110        2.5396431854
 O        -5.1420193691       -0.3332524842        6.0236379324
 O        -5.9601083326       -1.3327368369        2.2423986474
 C        -7.8560486056       -2.0856475353        4.5379109133
 C        -7.6115502768        0.3112784701        5.1650910020
 H         4.9409282179        0.1683518975       -4.2239822334
 H         6.3119085621        0.9773304294       -5.1761502793
 H         4.5330157035        1.5808879010       -5.0860141175
 H         1.4207456224       -2.6773555998       -6.7060736501
 H         0.5879354643       -1.6646274154       -5.4756044708
 H         4.0485639048       -1.1925836265       -8.4209932066
 H         3.1139452097       -2.4622105675       -7.5861581011
 H         4.7474237741       -2.7989953586       -7.7036355103
 H         5.4204662991       -2.0631507404       -4.4808850885
 H         5.0730599722       -3.2550180434       -5.5039060082
 H         6.1930908755       -1.9675769199       -5.9432166657
 H         1.1269786647        0.4090361148       -6.9324086783
 H         1.8495291481       -0.5699239069       -8.2221268779
 H        -2.3292514360       -0.1651990783       -6.2205386655
 H        -0.9018793173        0.5908959687       -5.6830710165
 H         0.6814876306        0.6708423349       -9.7564247689
 H        -0.3268405581        2.2324088512       -9.8196471110
 H        -0.8135513357        0.9387086971      -10.7017494220
 H        -2.1022398347       -0.9404817400      -10.0988172888
 H        -2.9026240848       -1.0843686201       -8.5777665977
 H        -2.9666124372        0.5210612676       -9.6454925393
 H        -3.6642289313        1.9157659954       -5.7067021862
 H        -2.2175442416        2.6349316601       -5.1812710787
 H        -0.5899971209        2.5436148423       -0.6770245189
 H        -2.2014193246        1.8241162676       -0.2557569468
 H        -4.8702116638        3.5792131675       -2.5518258822
 H        -4.9878701779        3.0612700067       -4.1373626436
 H        -3.6828236939        4.1010209430       -3.4220055200
 H        -4.2409608622        1.3667700324       -0.8538035848
 H        -5.0507995348        0.7113265504       -2.1541526189
 H        -3.3702276858        0.1789018503       -1.8656398828
 H        -1.4647536586        0.0211879154       -2.1405349308
 H         0.0522142944        0.7435558941       -1.6505640689
 H         2.1056164730       -3.7894535002       -0.1111256905
 H         2.0078418991       -2.6037520042       -1.4203129970
 H        -2.3891563455       -2.9580914390       -0.6308115076
 H        -2.0512644617       -2.7724337817        1.1846504064
 H        -1.1464439681       -3.8825186677        0.0018803290
 H         0.5325857258       -1.6137572043       -2.2319629491
 H        -0.1145686907       -3.2552472359       -1.9810100631
 H        -0.9946507753       -1.9895055782       -2.5890881490
 H         4.3674375900       -2.7409365753       -0.4835033767
 H         3.6933549109       -2.4785656989        1.1269572028
 H         2.8087429250       -0.1281406048        2.0831492516
 H         4.2308217068       -0.1395760967        3.2329089384
 H         6.4287194443       -1.6037362460        0.2987984731
 H         5.4484841457       -1.4418892179        1.7979421055
 H         6.6731752492       -0.2682030336        1.2698893566
 H         6.5744542552        0.9449241521       -0.6277343118
 H         5.5935679709        0.1084802769       -1.8487627647
 H         4.9316256657        1.5842994345       -1.2313572128
 H         4.1349899624        2.3504082340        3.4942011659
 H         2.5579812526        2.2462535004        2.7842641480
 H        -0.4175354765        1.5576188030        7.3864583687
 H        -1.4971180240        0.5203221586        6.3016130690
 H         3.2071330513        2.7593630802        6.7351592525
 H         1.9935684029        1.7139136580        7.4283070887
 H         1.6854991403        3.4662242580        7.2730372679
 H         2.2432651118        4.1152532379        4.0916438009
 H         0.7452244398        3.3091196742        3.6148150563
 H         0.8870662393        4.4455810978        5.0827823849
 H        -0.1742972447       -0.7106236794        7.9667205879
 H         1.3210849012       -0.2960834524        6.9720317162
 H        -3.6747156817       -3.8277551724        6.2323362481
 H        -3.9881582351       -2.2357558688        7.0821263132
 H        -0.0778112537       -3.8387378766        4.7256214781
 H        -1.3687211604       -4.8824801689        5.5048048612
 H         0.0333118370       -4.6109633188        6.3536064130
 H        -0.5236688198       -3.1853595023        8.3629559428
 H        -1.6407558210       -1.8295995101        8.2819597108
 H        -2.2755795578       -3.5397223631        8.0580793066
 H        -4.5394593851       -2.5075773814        4.0210047016
 H        -5.6276749559       -3.3182839601        4.9699603222
 H        -6.8827407498        0.9155775666        1.5242068769
 H        -7.3514523220        1.3950954266        3.1341227498
 H        -5.6341667564        1.4483875101        2.6886209489
 H        -8.7659267762       -1.6263889945        4.1049990847
 H        -8.2124764950       -2.3502229517        5.5719830967
 H        -7.4277268008       -2.8636061325        3.8685821717
 H        -7.9984091550       -0.0492751598        6.0894103255
 H        -7.2101793384        1.3081589204        5.0434378173
 H        -8.6212676906        0.2730160642        4.6635195563
 Na       -0.7655759616       -0.7584209706        3.1503098621
