155

 C         4.9002270574        1.0829809068       -5.1389757195
 C         4.8399237113        0.2416801793       -6.4102684928
 C         4.2886125804       -1.2086939095       -6.2505269811
 C         2.9306185093       -1.0190463507       -5.5389134509
 C         1.4901636695       -1.1719629882       -6.1650729136
 C         4.0922103068       -1.9490369838       -7.5940259676
 C         5.2065191197       -2.0636013697       -5.3769471741
 O         5.0996022021        0.6892762530       -7.4746485169
 O         3.0623103130       -0.7901690253       -4.3327329958
 C         1.1502061400       -0.3452213571       -7.3731829416
 C        -0.1448719734       -0.8906924330       -8.0166614194
 C        -1.0833949682        0.2483609018       -8.6588765241
 C        -1.3920832926        1.2941496480       -7.5204671891
 C        -1.8359599417        0.7404034374       -6.1714169172
 O        -0.5432498210       -2.0319375736       -7.9296508037
 O        -1.4283367798        2.4726024560       -7.8442851878
 C        -0.2851028204        0.9415701077       -9.7028214912
 C        -2.4845572089       -0.2339445554       -9.1299192206
 C        -2.5899146809        1.7277499991       -5.2808559685
 C        -2.9944231529        0.9465640899       -3.9496723492
 C        -3.4079460477        1.9583693374       -2.8209142584
 C        -2.0735437617        2.5423005199       -2.2291099533
 C        -1.2896806351        1.9412780894       -0.9943721211
 C        -4.2985047938        3.0912108772       -3.3601349463
 C        -4.3237383576        1.2412529502       -1.6522499490
 O        -3.0092920277       -0.2650809713       -3.8334805122
 O        -1.5331651801        3.4644879886       -2.8184940996
 C        -0.6940277814        0.5612387210       -1.4154405951
 C        -0.6888862456       -0.4121277437       -0.2840706003
 C        -0.3844058684       -1.9113854548       -0.5840216760
 C         0.8493382255       -2.1001372477        0.2795765788
 C         2.0718458891       -2.6696508735       -0.3783083182
 O        -1.1611726020       -0.1748257297        0.8154629248
 O         0.9959972016       -1.9146347312        1.4862195667
 C        -1.4471529476       -2.7862058202        0.1610267125
 C        -0.3447188067       -2.1890840360       -2.0435699625
 C         3.3901637267       -2.2365347733        0.2271415358
 C         3.6217018920       -0.7172028779       -0.1402535607
 C         4.8942621960        0.0810245749        0.2706773435
 C         4.4146147959        1.2031690036        1.3113190862
 C         3.6105763946        0.6044988810        2.4623493171
 C         6.0494505993       -0.7265425844        0.7876893532
 C         5.3464992809        0.7443707887       -1.0981153800
 O         2.6895967343       -0.0529611846       -0.6119127547
 O         4.5500550881        2.3742893451        1.1088036563
 C         2.8707522036        1.6722927205        3.2526989004
 C         2.4825185570        1.2123499630        4.6967042360
 C         1.4170306005        2.2355191921        5.3280539403
 C         0.1120677886        1.3559166864        5.2885431037
 C        -0.4545425581        0.7591498882        6.6071575935
 O         2.9068348878        0.2362370362        5.2764182390
 O        -0.4285114680        1.3052016966        4.1789284138
 C         1.9342615577        2.4757486966        6.8369292829
 C         1.3122170686        3.6166574778        4.6854894042
 C         0.4618610592       -0.5453851756        6.9358166255
 C         0.0322793246       -1.6848949632        5.9638506144
 C        -1.1725198499       -2.7263074049        6.3881218217
 C        -2.4209458839       -2.4308220180        5.4376877922
 C        -3.7636057833       -2.9092670774        5.8583679337
 C        -0.7063944927       -4.2120134977        5.7936631496
 C        -1.2654319477       -2.9148291571        7.9089932456
 O         0.5805713765       -1.8580895651        4.8916897796
 O        -2.2597708746       -1.9681544184        4.2874674875
 C        -5.0039737953       -2.6060372323        5.0271046932
 C        -5.7339796899       -1.2430364707        5.2949004764
 C        -7.0430940811       -0.8760762683        4.5621547933
 C        -6.5316565807       -0.5325952414        3.1230121144
 C        -6.5936530798        0.9001587529        2.4053661369
 O        -5.1096672937       -0.3549383852        5.8272691912
 O        -6.0319894195       -1.4155662556        2.4449129094
 C        -7.9240727053       -2.1742636986        4.3184776887
 C        -7.8402462491        0.2456676661        5.2790887935
 H         4.9173023595        0.3737721414       -4.3191464002
 H         5.7703086649        1.6514313584       -5.2618998683
 H         3.9960806664        1.7845838899       -5.1014397875
 H         1.2825576104       -2.1795692617       -6.4095758138
 H         0.8295946999       -0.9708529029       -5.2948494345
 H         3.8674657408       -1.1282500076       -8.2854245167
 H         3.3728977487       -2.8010187608       -7.5148191504
 H         5.0463187439       -2.3324868195       -7.9075831659
 H         5.5769484679       -1.7212614764       -4.4391054329
 H         4.7256301204       -2.9696397880       -5.0708149387
 H         6.1564668252       -2.2973966344       -5.8816434139
 H         0.9996050426        0.7163186037       -7.0529705893
 H         1.9945605859       -0.3162054733       -8.0427211206
 H        -2.4167580478       -0.1930078444       -6.2713899268
 H        -0.9456408017        0.4519705915       -5.5805415890
 H         0.0943677846        0.2717592215      -10.4071699863
 H         0.5724949560        1.4396337556       -9.2208238669
 H        -0.8782533713        1.8187573820      -10.1245130518
 H        -2.3203198469       -1.0606834041       -9.8204263455
 H        -2.8627792935       -0.6488510868       -8.2956579056
 H        -3.0282982725        0.5992310214       -9.6455084173
 H        -3.5395696978        2.1066369082       -5.7834237300
 H        -1.9705690203        2.6632867515       -5.1616752483
 H        -0.4803727967        2.5734454302       -0.8070631792
 H        -1.8698990835        1.7165937791       -0.1079748118
 H        -4.6775760287        3.9670450172       -2.7472516136
 H        -5.2744933037        2.7545276850       -3.6893218667
 H        -3.7584940467        3.6214242286       -4.1527594208
 H        -4.7336094636        2.0128666155       -0.9465623702
 H        -5.1574815253        0.6585217806       -2.1667016911
 H        -3.9171421617        0.4797926950       -1.0309220042
 H        -1.1921435860        0.2322198052       -2.2978737677
 H         0.3526484723        0.7809886809       -1.7825199489
 H         1.8880245571       -3.7293495318       -0.1982099715
 H         2.2186457738       -2.4390327167       -1.4255086788
 H        -2.4562160743       -2.2813043024        0.1276967005
 H        -1.2178234529       -2.8802992179        1.1354380484
 H        -1.5845789777       -3.7213603837       -0.2710604357
 H         0.1033577494       -1.4205228845       -2.7084585536
 H        -0.0217127165       -3.2235044334       -2.2011780170
 H        -1.3890640359       -2.1781564531       -2.4897793078
 H         4.2529382569       -2.7992100210       -0.2067548505
 H         3.4590638063       -2.2289951926        1.2740084241
 H         2.9842737739       -0.1171352976        1.9562576441
 H         4.3108940687        0.0936053644        3.2212430720
 H         6.4053790692       -1.4795931506        0.0651679577
 H         5.8286760845       -1.1675803334        1.7684562149
 H         6.9031557684        0.0079679528        0.8449954295
 H         6.3353904200        1.1421548045       -0.8708216161
 H         5.4254315536        0.0007872345       -1.9464060918
 H         4.6956219233        1.5819345553       -1.3877051654
 H         3.5024373673        2.5443535921        3.3719945240
 H         2.0443218869        2.0578304464        2.6537190796
 H        -0.3168286034        1.4523760500        7.3623339512
 H        -1.5161954827        0.5531567166        6.3485768616
 H         2.9150292487        2.9451877746        6.7793744046
 H         1.8882999686        1.6118235885        7.4725635666
 H         1.3919397213        3.2343328623        7.3334650925
 H         2.2376179023        3.9379843927        4.3116134252
 H         0.6274941932        3.6340419001        3.8750521654
 H         1.0526143927        4.3206115751        5.5278777405
 H         0.1983612890       -0.9549606851        7.9162618990
 H         1.5144626702       -0.3522546678        6.7818151862
 H        -3.7047454214       -4.0388063746        5.8339295750
 H        -3.7880050509       -2.4807350540        6.8582729097
 H        -0.5125275341       -4.0904347859        4.7905276809
 H        -1.4792853129       -4.9724072900        5.8727286402
 H         0.1553716808       -4.6149384864        6.3249879784
 H        -0.3075664366       -2.6756285506        8.3246258886
 H        -1.9457041673       -2.2104283850        8.3809631696
 H        -1.6248018593       -3.8617774855        8.2584332096
 H        -4.7850277569       -2.4300325287        3.9291343935
 H        -5.5539153338       -3.5396179480        5.0056849609
 H        -6.7173453015        0.6203479177        1.3122578788
 H        -7.4215674555        1.6169303850        2.6690647629
 H        -5.6182658296        1.2904979884        2.5793705550
 H        -8.8941291632       -1.8694144252        3.8853341135
 H        -8.1112979939       -2.5244027089        5.2817674896
 H        -7.4875942746       -2.8103579119        3.5209166174
 H        -8.5018809854       -0.2201374864        6.0615348074
 H        -7.0820336511        0.9013744984        5.7341413062
 H        -8.4481356191        0.8006418115        4.6126900599
 Na       -0.6999710001       -0.8905143033        3.0079040741
