155

 C         4.9519808205        1.8998658392       -5.5099372002
 C         4.8561108265        0.7562207810       -6.5903469761
 C         4.6642085886       -0.7229775171       -6.0059240970
 C         3.3160248224       -0.7084468885       -5.2685587024
 C         1.9797234232       -1.2233484115       -5.8646879920
 C         4.8407797654       -1.8065108310       -7.1115947786
 C         5.7884245572       -1.0291822764       -5.0130729373
 O         5.0222318480        0.9188797972       -7.7692118104
 O         3.2779401444       -0.4399482884       -4.0850723714
 C         1.3165817839       -0.2841626687       -6.9234581187
 C         0.0525742650       -0.8831510713       -7.6171395054
 C        -0.8890333232        0.1374003561       -8.4350687849
 C        -1.5247873572        1.1166649050       -7.4469666152
 C        -2.4233409980        0.5380378099       -6.3050318527
 O        -0.0734704867       -2.1084094939       -7.5123955646
 O        -1.3202850633        2.3241410639       -7.4198087941
 C        -0.1203629718        0.8197442805       -9.6270588205
 C        -2.0806325539       -0.6166426479       -9.0577606475
 C        -2.8738592483        1.6195898876       -5.2469433002
 C        -2.9682442195        1.0163746093       -3.9115143242
 C        -3.3393681722        2.0286622947       -2.7269483191
 C        -1.9850295077        2.6810539611       -2.1547688565
 C        -1.3042418958        1.9037574125       -1.0305195844
 C        -4.1095628895        3.2675867290       -3.2423721844
 C        -4.0371630301        1.3328428745       -1.6110589517
 O        -2.6976022257       -0.1372864303       -3.6671314167
 O        -1.5758219170        3.7378038333       -2.5643878204
 C        -0.8671616004        0.5128322851       -1.4118926122
 C        -0.7278301361       -0.3814799337       -0.2118775883
 C        -0.2347370760       -1.9010080216       -0.4467375114
 C         1.1249024607       -2.0455318284        0.3535048810
 C         2.2542358764       -2.7526662203       -0.4389406528
 O        -1.0645697971       -0.0680360866        0.8897915543
 O         1.2157811991       -1.7934585901        1.5459265481
 C        -1.2773694868       -2.9140064387        0.1138329041
 C        -0.2265652585       -2.1670433452       -1.9820641011
 C         3.5601085870       -2.0067674537       -0.2416146775
 C         3.3199325133       -0.4702338250       -0.1453004544
 C         4.5699914722        0.4523344392        0.0456575921
 C         4.2405907260        1.4745849193        1.2091950285
 C         3.5963253964        0.8972512852        2.4733137437
 C         5.8585412729       -0.3731609825        0.5286212309
 C         4.8277767641        1.1836082652       -1.3207716524
 O         2.1926042149       -0.0301248214       -0.2671982032
 O         4.5214496930        2.6459226885        1.1344752961
 C         2.4917576336        1.7673450184        3.1368326597
 C         2.2520335919        1.4242714101        4.6042116531
 C         1.0221521144        2.1057561635        5.3735983710
 C        -0.1484442957        1.0881883041        5.2104781611
 C        -0.6184574065        0.2251559868        6.4538557398
 O         2.9874871914        0.6345334642        5.1713541549
 O        -0.5742460879        0.8831118294        4.0621389235
 C         1.4136666969        2.3154688426        6.9004310646
 C         0.5811004828        3.4686769055        4.6043894968
 C         0.3792821531       -0.8822709389        6.7688694359
 C         0.0157980542       -2.0487952765        5.7960500637
 C        -1.1688521010       -3.0569152515        6.1176662279
 C        -2.3954621545       -2.8271886327        5.2334644248
 C        -3.8805993376       -3.1994900612        5.7016135604
 C        -0.6567714098       -4.5424541402        5.6003245741
 C        -1.5144549533       -2.9656354816        7.6227370092
 O         0.6377592077       -2.0955546502        4.6918129412
 O        -2.2335860789       -2.4563581220        4.0919866259
 C        -5.0200603563       -2.6877934633        4.7545914930
 C        -5.6868953961       -1.5075893026        5.1751597639
 C        -7.0236611890       -1.0947391424        4.4458321087
 C        -6.5703014571       -0.6750130187        2.9714420936
 C        -6.7606489150        0.7621377547        2.4747803462
 O        -5.1588531930       -0.6872710546        5.9975607112
 O        -6.2281873329       -1.5597772791        2.2216595713
 C        -7.8731854766       -2.3208100063        4.2230730870
 C        -7.8011872235       -0.0246067146        5.3625283264
 H         6.0653953028        1.9365988570       -5.2858012929
 H         4.3807159034        2.7262097771       -5.7953901650
 H         4.4268107973        1.5473327537       -4.5842194559
 H         2.1188698886       -2.2152182857       -6.3461398763
 H         1.3754367937       -1.4027494823       -5.0196285326
 H         4.0972727727       -1.7244933435       -7.8430707160
 H         4.7458708530       -2.8149625936       -6.6080505242
 H         5.8310818910       -1.6593050430       -7.5856162878
 H         5.7547157955       -0.5035875438       -4.0586140843
 H         5.8369365511       -2.1008419885       -4.7537726023
 H         6.7952162466       -0.9132647547       -5.3584423995
 H         1.0489722766        0.5878433398       -6.3718885214
 H         2.0219667866        0.0132501985       -7.7170578288
 H        -3.3212508807        0.0316813444       -6.7786450106
 H        -1.9235749472       -0.2752502155       -5.6707722353
 H         0.7006143583        1.4903486277       -9.3987290054
 H        -0.8667847138        1.2416669435      -10.2457876553
 H         0.3899029299        0.0535892725      -10.3111723128
 H        -1.6201490982       -1.2323638342       -9.7886883144
 H        -2.6902192272       -1.1077854187       -8.3077604035
 H        -2.7921246415        0.1692439992       -9.4635442167
 H        -3.8193583589        2.0614520235       -5.6326986739
 H        -2.2560433257        2.5271854573       -5.2415977016
 H        -0.3915061771        2.4363383109       -0.6181518334
 H        -1.9136978628        1.7265968233       -0.1066453975
 H        -4.6693725084        3.7923704200       -2.4533846598
 H        -4.9706816073        3.0136415275       -3.9248791344
 H        -3.6156430803        3.9622026801       -3.9347925388
 H        -4.2213503789        1.9419713036       -0.6603211819
 H        -5.0235104913        0.8755850784       -2.0300147106
 H        -3.5693726051        0.4509854591       -1.1940406502
 H        -1.5459463805        0.1196257220       -2.2112474937
 H         0.0841331694        0.4997843971       -1.8760107936
 H         2.3988492605       -3.7635900526        0.0492543399
 H         1.9760390485       -2.8357502746       -1.5182608155
 H        -2.0827370101       -3.1650394759       -0.6184361472
 H        -1.6795263489       -2.6125823861        1.0246604684
 H        -0.6764949250       -3.7707524345        0.3307760512
 H         0.6727456258       -1.8232264662       -2.5435976600
 H        -0.1337512477       -3.2757577149       -2.2176720032
 H        -1.1510589878       -1.7985928326       -2.4218552193
 H         4.2856653928       -2.1773171458       -0.9982278159
 H         4.0350156456       -2.3246567998        0.7423599533
 H         3.2718765170       -0.0770889275        2.1788431252
 H         4.3622314549        0.7063246596        3.1347304219
 H         6.1930961433       -1.1696693341       -0.1366732941
 H         5.7444028819       -0.7866452015        1.5852910433
 H         6.5516977019        0.4086811983        0.6945345097
 H         5.6129609188        1.9068934638       -1.2065818220
 H         4.9740686075        0.4464509496       -2.0983954081
 H         3.9835921101        1.8844748405       -1.4878129551
 H         2.8613904080        2.7882393763        3.1412623002
 H         1.5525290835        1.7533367837        2.5820499466
 H        -0.8784467413        0.9067490958        7.3192975623
 H        -1.5862745839       -0.1882131195        6.2215785465
 H         2.3957534491        2.6689862086        6.9970964934
 H         1.3682204671        1.3700286115        7.4822554390
 H         0.6670281355        2.9607197076        7.4134233463
 H         1.4249230501        4.0766788020        4.2518247811
 H        -0.0224190526        3.1655472050        3.7852263236
 H        -0.1107890967        3.9858999692        5.1855657856
 H         0.4030038452       -1.2260969876        7.8080942971
 H         1.4174451721       -0.7012824923        6.5515333879
 H        -3.7535498398       -4.2600604464        5.6197085542
 H        -4.0703839264       -2.8764632247        6.7585573480
 H        -0.2214263764       -4.4806127449        4.5890514085
 H        -1.5245235813       -5.1939034868        5.5499383057
 H         0.0965279219       -4.8735230742        6.2935007868
 H        -0.7259336305       -3.3000386586        8.3466497705
 H        -1.7232642007       -1.9858825833        7.8789293588
 H        -2.3301694993       -3.5655386275        8.0354035808
 H        -4.4821461761       -2.4070962133        3.8333951689
 H        -5.7087725083       -3.5251189481        4.4825775401
 H        -6.4351243532        0.9326936232        1.4626007078
 H        -7.8449070827        0.7893304917        2.5339966409
 H        -6.2038502963        1.4985869510        3.1193385285
 H        -8.8234087303       -1.8931974074        3.9259085086
 H        -7.9193708828       -2.8983605205        5.2038225808
 H        -7.5775166791       -2.9667117388        3.4202826522
 H        -8.1509037591       -0.4552017290        6.2610432747
 H        -7.2395044934        0.8500872710        5.7641318838
 H        -8.5954420935        0.2110725659        4.6393767818
 Na       -0.8221858031       -1.1469560517        2.7799030698
