155

 C         4.9850365044        2.1340701977       -5.6797299282
 C         4.7995797083        0.8381632315       -6.5848180025
 C         4.8548828864       -0.5923494112       -5.8980538645
 C         3.4565883298       -0.6639674536       -5.2406689578
 C         2.2254993268       -1.2812244789       -5.9045588078
 C         5.0473677032       -1.5742521069       -7.0424768541
 C         5.9577619970       -0.7450449236       -4.7868543687
 O         4.7093903630        0.8337737055       -7.8176874789
 O         3.3276971696       -0.2234840661       -4.0963152380
 C         1.4130249352       -0.3313923050       -6.7766026903
 C         0.1848977144       -0.9079510063       -7.4842312607
 C        -0.8325349003        0.0981530838       -8.3709510139
 C        -1.5622719548        1.1372340945       -7.3922067299
 C        -2.6764842281        0.6427164061       -6.4727215956
 O        -0.0626605872       -2.0916874016       -7.5467801328
 O        -1.1471805432        2.2727921097       -7.3978808537
 C         0.0939110788        0.8163506452       -9.3554136046
 C        -1.8390578177       -0.8111227246       -8.9881675949
 C        -3.0599348268        1.5467690358       -5.3209126171
 C        -3.0133367454        1.0495366557       -3.8503376935
 C        -3.3077336462        2.1651682422       -2.7585768249
 C        -1.9524742244        2.7181578632       -2.0237894668
 C        -1.1970834186        2.0355893088       -0.9075987150
 C        -4.1929650590        3.3114749211       -3.2446776481
 C        -4.1745305791        1.3713835092       -1.7479718210
 O        -2.7616172522       -0.1432161114       -3.5339360095
 O        -1.4810624811        3.6849887468       -2.5595671863
 C        -0.6408601889        0.6121713227       -1.3378304617
 C        -0.7567784358       -0.4441048521       -0.1970981734
 C        -0.3096311162       -1.9149823367       -0.4397432623
 C         1.0873807905       -2.1255894483        0.2944156740
 C         2.3732606822       -2.7811026475       -0.3738297925
 O        -1.0592086284       -0.0794928417        0.9709935520
 O         0.9873948924       -1.9976355506        1.5204612042
 C        -1.4466361555       -2.8690071800        0.2182191623
 C        -0.0912594990       -2.2457792188       -1.9308171300
 C         3.5855087696       -1.8801556080       -0.1137585766
 C         3.3203239555       -0.4131671882       -0.1408196131
 C         4.5635873911        0.6207703779       -0.0024443604
 C         4.0751444773        1.5670526729        1.1647452879
 C         3.4485500799        0.8787286955        2.4763151449
 C         5.8190877443       -0.1325833609        0.3468445876
 C         4.7092266366        1.4514328984       -1.3353262717
 O         2.1853384052        0.0108258673       -0.1578147739
 O         4.1990570214        2.7711417741        1.0915779765
 C         2.5217228477        1.8137291745        3.1724167302
 C         2.3001637990        1.4838421542        4.6211322110
 C         0.9484784132        2.1975987364        5.1938860329
 C        -0.1642037740        0.9790593680        5.0614415526
 C        -0.5619812040        0.1622466435        6.3582374693
 O         3.0545647582        0.7891272857        5.3038714595
 O        -0.6535915075        0.7572270296        3.9932876450
 C         1.1909033888        2.6187961636        6.7066775420
 C         0.5899459040        3.4395591526        4.5144309617
 C         0.3371886901       -1.0623932554        6.6921790110
 C        -0.0411463384       -2.2126317989        5.6616384218
 C        -1.1886859532       -3.2471087584        6.0252575580
 C        -2.4251823808       -2.8350973598        5.1139528609
 C        -3.8169648943       -3.2461988083        5.6389128711
 C        -0.6161447311       -4.6754132327        5.6453667311
 C        -1.5461196010       -3.4362973863        7.5200662587
 O         0.5866833106       -2.3631251889        4.6982365768
 O        -2.2582608009       -2.3997721887        3.9860504017
 C        -4.8993427287       -2.8352090153        4.6325567192
 C        -5.7337139911       -1.5611421985        5.0405149484
 C        -7.0643802023       -1.1291509781        4.4218931752
 C        -6.6684959290       -0.7144707322        2.9361008974
 C        -6.8596846738        0.7594021078        2.6316283378
 O        -5.2743224726       -0.9574459878        5.9589523647
 O        -6.0925943608       -1.4921167405        2.1950889348
 C        -8.0876330365       -2.3996639374        4.3322992225
 C        -7.7377087945       -0.0315629450        5.1308546725
 H         5.9991991958        2.3793194067       -5.8360800578
 H         4.1668049374        2.8734145285       -5.9945737557
 H         4.7833798085        1.9270240962       -4.6639109784
 H         2.4201574293       -2.1730710264       -6.4834957223
 H         1.5262091897       -1.5724027508       -5.0502247755
 H         4.0504471500       -1.6518558547       -7.5989060828
 H         5.2132832088       -2.5473508035       -6.6826356796
 H         5.9244257029       -1.2668915179       -7.6262721622
 H         6.0578825850        0.1820797678       -4.2006579907
 H         5.8419245501       -1.5522191573       -4.0846144464
 H         6.9943653261       -0.9729056709       -5.0968180096
 H         1.0419899903        0.4859256395       -6.0900776330
 H         1.9301614158        0.1316523422       -7.6300156419
 H        -3.5715048898        0.4969549185       -7.0578283571
 H        -2.4406311165       -0.3366415970       -6.1371540108
 H         1.1066220226        0.3720584431       -9.2856863898
 H         0.1298542127        1.9381323595       -9.2127742213
 H        -0.0518833738        0.6976282465      -10.3618488850
 H        -1.3727824866       -1.4373640763       -9.7819064280
 H        -2.1886962245       -1.4423735177       -8.1231546893
 H        -2.6946850364       -0.2780205595       -9.1750693109
 H        -3.9929880840        1.9083022849       -5.6799203014
 H        -2.4365914984        2.4417937712       -5.3718731041
 H        -0.3387225051        2.6195410566       -0.6190786150
 H        -1.7049508550        1.8591360740        0.0497422757
 H        -4.1892233129        4.1420666507       -2.5353421016
 H        -5.1766895668        3.0600318156       -3.6012975196
 H        -3.8709966484        3.7818375968       -4.1684844290
 H        -4.5231590859        1.9565707372       -0.9280651856
 H        -5.0241869642        0.9142477551       -2.1504348775
 H        -3.5643209299        0.6112098832       -1.1822999277
 H        -1.1392105648        0.2022928172       -2.2034579136
 H         0.4392991800        0.7060320347       -1.7243114481
 H         2.4726737566       -3.7190660099        0.1595754907
 H         2.2880280217       -2.9679525656       -1.4320803958
 H        -2.3462242359       -2.3917282355       -0.1008698887
 H        -1.4419646374       -3.0300128921        1.3932536445
 H        -1.4204548534       -3.8883817668       -0.2866682770
 H         0.5956980761       -1.6138183910       -2.4057715375
 H         0.3760137632       -3.1707341997       -2.0347895829
 H        -1.0129765751       -2.3412315326       -2.4820030149
 H         4.4589227952       -2.0603833125       -0.8285323588
 H         3.9903324857       -2.0049018179        0.8680415400
 H         2.9885310389       -0.1185977315        2.2615904102
 H         4.3615423679        0.5440704379        3.0763667333
 H         6.1614189094       -0.7913122766       -0.4490738361
 H         5.6241917502       -0.7100813800        1.1761061206
 H         6.5868852471        0.6103319487        0.6172556717
 H         5.7521971912        1.8115857855       -1.2337962147
 H         4.6074307542        0.8712867045       -2.2501251975
 H         4.1817616484        2.3714980460       -1.2808594723
 H         2.9459191055        2.8367866080        3.1780392554
 H         1.5619361175        1.8052568082        2.6520640074
 H        -0.5464769585        0.8458064467        7.1758821664
 H        -1.6684394261       -0.0263206504        6.3302226047
 H         1.7323287400        3.6252205154        6.7669593247
 H         1.8202462140        2.0004038750        7.3388489901
 H         0.2094190703        2.7163487240        7.1376676795
 H         1.4059054753        4.1438543823        4.5971840045
 H         0.3167705409        3.2092045298        3.4591330874
 H        -0.3509784310        3.8389303001        4.9575985353
 H         0.2113680080       -1.4019149985        7.7293536019
 H         1.4485518024       -0.8259408957        6.6425829862
 H        -3.8173239983       -4.3767511847        5.7127582271
 H        -4.1024507249       -2.8377900397        6.5864901810
 H        -0.4257625268       -4.7185116601        4.5330090018
 H        -1.3775647929       -5.4454613913        5.9526646202
 H         0.3842610463       -4.7892774645        6.1353403114
 H        -0.7579980621       -3.6172649143        8.2245484345
 H        -2.0530133578       -2.5218078058        8.0205880081
 H        -2.2605832692       -4.2452196061        7.6958370851
 H        -4.5539150687       -2.8367491602        3.5995037528
 H        -5.4903462082       -3.7272294432        4.6552404976
 H        -6.4602111635        1.0004669986        1.6611880336
 H        -7.8836660921        1.0916386981        2.6941901660
 H        -6.1673807717        1.1829311988        3.3073504050
 H        -9.0857314571       -2.0189940841        3.9730592842
 H        -8.1926580308       -2.8301075851        5.3130637565
 H        -7.6075278976       -3.2382175638        3.7271220418
 H        -7.9164940600       -0.4896821787        6.1488316376
 H        -6.9497968814        0.6723940772        5.4128253761
 H        -8.5874048652        0.4253622847        4.5831178562
 Na       -0.5913014479       -1.3593090935        2.9575750728
