155

 C         4.3600286231        3.0151949604       -6.9922508890
 C         4.5564848790        1.5247200267       -6.9494245645
 C         5.3437227111        0.7924115845       -5.8392615525
 C         4.4467144526       -0.2053358156       -4.9922253543
 C         3.3053286439       -0.9740956324       -5.6431038151
 C         6.5467519575       -0.0399617070       -6.3817664003
 C         5.8684561835        1.9070157361       -4.8348759507
 O         4.2332335353        0.8864040304       -7.9573172060
 O         4.6449088346       -0.2928167951       -3.7957282660
 C         1.9412391418       -0.3125991817       -5.4013639512
 C         0.6983551306       -1.0270117044       -6.1572472934
 C        -0.1326920632       -0.1995958562       -7.2321273320
 C        -0.7975800430        1.0580135331       -6.5555116145
 C        -2.3168464645        1.1189623735       -6.5480238161
 O         0.4589549156       -2.2033699549       -5.8394295772
 O        -0.1270452305        1.8946978574       -5.9786628575
 C         0.7958151834        0.3709651614       -8.2735898584
 C        -1.2892755268       -1.0525361319       -7.8798076767
 C        -2.8310734851        2.0578775985       -5.4828964000
 C        -3.0339789596        1.3615206469       -4.1397602396
 C        -3.3597191650        2.3716355559       -2.8845780388
 C        -1.9853353634        2.4589661653       -2.1101611504
 C        -1.5497139860        1.4033758764       -1.0413344272
 C        -3.7645190769        3.7577135010       -3.4040556758
 C        -4.4946478834        1.6882628315       -2.0418435941
 O        -2.9745080413        0.1509437784       -3.9744214949
 O        -1.2437508598        3.3333193804       -2.4916556972
 C        -1.0729337379        0.0198258778       -1.6972406291
 C        -0.9598532568       -1.0895646283       -0.6759210093
 C        -0.0189851415       -2.3275497162       -1.0323814943
 C         1.2534175915       -2.1509625806       -0.1604903534
 C         2.6613265554       -2.2665908980       -0.7915188841
 O        -1.4477397718       -0.9891733530        0.4729247007
 O         1.0444157551       -2.0040604187        1.0483562836
 C        -0.6143109323       -3.6052871680       -0.3556007197
 C         0.3134155903       -2.7567113388       -2.5856079759
 C         3.6466163336       -1.2890576901       -0.0810911885
 C         3.0447740479        0.0758668745       -0.1096901272
 C         3.8254622265        1.4166551133        0.2139315035
 C         2.9746584499        2.4147604825        1.1392493900
 C         2.6815584274        1.9304412134        2.5954059272
 C         5.1858884210        1.1041133194        0.8325194130
 C         4.0031798329        1.9639058030       -1.2601549312
 O         1.8511154115        0.1476384667       -0.3560759663
 O         2.7326264926        3.5461804546        0.7373048099
 C         1.4652181821        2.5969899184        3.3304452540
 C         1.5592696092        2.1529850434        4.7527226671
 C         0.2418532766        1.7928685041        5.5358286111
 C        -0.3759140268        0.4173779094        5.0935138347
 C        -1.1218813126       -0.3444327404        6.1078941302
 O         2.6342170105        2.1725135526        5.3463129078
 O        -0.3972545232        0.1784668935        3.9191515234
 C         0.6872949333        1.8917278872        7.0616610028
 C        -0.8366579387        2.8078963503        5.2893252128
 C        -0.4125361937       -1.7144627196        6.5341141085
 C        -0.0569039358       -2.8236513681        5.4873772780
 C        -1.1187466260       -4.0644735800        5.4679003810
 C        -2.4110110882       -3.5153088682        4.6525707859
 C        -3.7741779448       -3.8683170319        5.2888966943
 C        -0.4231493737       -5.1082295756        4.5119981394
 C        -1.3294978170       -4.7376472879        6.8763950455
 O         0.7036235156       -2.6463832341        4.5840856800
 O        -2.2593289347       -2.9149985583        3.6121166657
 C        -4.9693842100       -3.4049088106        4.4701760586
 C        -5.7578521294       -2.1691202127        5.0069977099
 C        -6.9939410961       -1.5269875697        4.3089826606
 C        -6.4720237171       -0.9407191536        2.9663390823
 C        -7.1499902280        0.2522061679        2.3453309003
 O        -5.2328120277       -1.4702103362        5.8638597354
 O        -5.3783835818       -1.3520207648        2.4670132717
 C        -7.9605170354       -2.7213198457        3.9023637820
 C        -7.6701959274       -0.5564814471        5.1717639493
 H         5.2632818341        3.6258059618       -6.9625957066
 H         3.9072775952        3.3137952631       -7.9704232898
 H         3.7151255732        3.3242387166       -6.1667022412
 H         3.5126307522       -1.1219651367       -6.7142261404
 H         3.2764725116       -1.9720613492       -5.1909028023
 H         6.1601882960       -0.9610957895       -6.9625838193
 H         7.1646227388       -0.3857631793       -5.5747221923
 H         7.0980339997        0.5033303712       -7.1468731030
 H         5.1145512935        2.6654794989       -4.7635594091
 H         5.9632636020        1.3712084393       -3.9065147856
 H         6.8909735250        2.2564435239       -5.0770421043
 H         1.6978287226       -0.2314275511       -4.3120298970
 H         2.0354278760        0.6660253325       -5.7622285380
 H        -2.6316700189        1.4332512077       -7.5685481293
 H        -2.8027968626        0.1250358090       -6.3116056548
 H         1.3811499443        1.1448339854       -7.7959360418
 H         0.3392485372        0.7927676047       -9.2522238341
 H         1.4914254485       -0.2912668922       -8.6447466575
 H        -1.0349419145       -1.8804030640       -8.5911022282
 H        -2.0461064747       -1.3815818554       -7.0597269648
 H        -1.9072202277       -0.4113815712       -8.3974323896
 H        -3.7782778900        2.5996200868       -5.5726143894
 H        -2.0395344073        2.7546202123       -5.2454965276
 H        -0.7178628406        1.8076784426       -0.4384929179
 H        -2.3664029097        1.1277816892       -0.3159190363
 H        -4.2638068986        4.3208005553       -2.5634585661
 H        -4.5581168456        3.7652430376       -4.1932808961
 H        -2.8985246035        4.3777364151       -3.7657133071
 H        -4.5135024649        2.1893992716       -1.0780545973
 H        -5.3721081844        1.7426437951       -2.6531961340
 H        -4.2488377927        0.5907701032       -1.7821308867
 H        -1.7180563972       -0.4572557314       -2.5268414993
 H        -0.0837603622       -0.0149085865       -2.1564077899
 H         3.0127426664       -3.2644635963       -0.6607488328
 H         2.4873304262       -1.9848402975       -1.8408921003
 H        -1.4849354821       -3.8934884405       -0.9601726668
 H        -1.0136594689       -3.4615067804        0.6902768648
 H         0.1644924279       -4.4385516615       -0.4042962819
 H         0.6144191062       -1.9024499637       -3.2558140955
 H         1.1726106575       -3.4574220365       -2.6686974180
 H        -0.6600597045       -3.2456168677       -2.9301493318
 H         4.5189361161       -1.2729918860       -0.7469842747
 H         4.0397714001       -1.5554064202        0.9551000598
 H         2.6426460126        0.8524038234        2.7128500789
 H         3.6095862411        2.2754380636        3.1604244006
 H         5.8100450463        0.3886104590        0.2564919949
 H         5.0498913110        0.6440045890        1.8110851283
 H         5.8277918531        2.0403453437        0.9759319215
 H         4.2575593351        3.0266540445       -1.0934074377
 H         4.7056299560        1.4464627734       -1.9502800526
 H         3.0619166698        2.1632435635       -1.7290553492
 H         1.5228742823        3.6240340157        3.3807022833
 H         0.4815707646        2.3175817381        2.9364756409
 H        -1.2859928006        0.2260179014        7.0219734449
 H        -2.1453746937       -0.4776264232        5.6227426668
 H         0.8383767463        2.9743811325        7.2875587193
 H         1.5627718620        1.3881636565        7.3710663988
 H        -0.1398437111        1.5359339244        7.5707068748
 H        -0.3896521419        3.7412231416        5.3591423627
 H        -1.3461102195        2.7311428972        4.3584035418
 H        -1.6204833781        2.6520724715        6.0743951139
 H        -1.1107704810       -2.1004239822        7.3105909399
 H         0.4395988073       -1.3903328498        7.1462492923
 H        -3.8397338725       -4.8944250968        5.6079068992
 H        -3.7555614452       -3.3479160509        6.2988722656
 H        -0.4304729154       -4.7523667092        3.4660012630
 H        -1.1205086599       -5.9157898771        4.5489624396
 H         0.5496595422       -5.1811419782        4.9520424050
 H        -0.4064034294       -5.1283755012        7.2799324544
 H        -1.7433690452       -3.9143373692        7.5701804996
 H        -2.1103473250       -5.5040061842        6.7666267808
 H        -4.7079394240       -3.3199140640        3.4258460498
 H        -5.7118115231       -4.1916606666        4.5020933923
 H        -6.5632051970        0.4459994314        1.4440080967
 H        -8.2343032233        0.0255825998        2.2429453522
 H        -6.9530479177        1.0961112644        2.9775964583
 H        -8.9575144429       -2.3416315171        3.6042405972
 H        -8.0214726628       -3.5409142589        4.5601291658
 H        -7.7836564806       -3.1908687440        2.9057302903
 H        -7.7666945772       -0.9555074734        6.1857643852
 H        -6.8904729928        0.1361362459        5.5090624071
 H        -8.5697190828       -0.1081630396        4.6453305644
 Na       -0.5522448566       -1.8455684016        2.6563012055
