155

 C         4.0949616583        3.0266318143       -7.0649540149
 C         4.5446227455        1.5489119724       -6.9860912289
 C         5.2794391307        0.9928508917       -5.8270910730
 C         4.4583539138       -0.0096083200       -4.9819701344
 C         3.4245253557       -0.8408329751       -5.6913274532
 C         6.4822872435        0.1860463304       -6.4591559822
 C         5.9386232916        2.0299569557       -4.8598325308
 O         4.2984008453        0.8062994150       -7.9074812429
 O         4.6939830272       -0.2382800111       -3.8072623619
 C         2.0579513432       -0.1563480762       -5.4024083671
 C         0.9127818758       -1.0261867647       -5.9936178393
 C         0.0809116742       -0.3513392893       -7.0732985627
 C        -0.6561258084        0.9345966073       -6.4397127606
 C        -2.2253326859        1.2322662512       -6.5117923184
 O         0.5388318715       -2.1095571392       -5.5748932102
 O         0.0841849907        1.7273825541       -5.9261422989
 C         1.0522037751        0.1620048615       -8.2488006204
 C        -0.8430893707       -1.3720505998       -7.7870409311
 C        -2.6910770756        2.2876537017       -5.4408635950
 C        -3.1454895619        1.5009913650       -4.1335581764
 C        -3.3891430237        2.3931577196       -2.7830861058
 C        -1.9981448881        2.3337224698       -2.0103268400
 C        -1.6827275205        1.1213481467       -1.0575979159
 C        -3.8145068821        3.8588994916       -3.0430570593
 C        -4.4422692495        1.5756875696       -1.9351736404
 O        -3.1921940843        0.3051604597       -4.2183687986
 O        -1.1536487532        3.1195535495       -2.3378130132
 C        -1.2024867526       -0.1010382225       -1.7643639580
 C        -0.9541862257       -1.1693910979       -0.6311338592
 C         0.0580042154       -2.3402824924       -0.9551900147
 C         1.3944323764       -2.1686788026       -0.0025130233
 C         2.7675166601       -2.2110193218       -0.7313843310
 O        -1.4291327004       -0.9563831193        0.4476293000
 O         1.3657700801       -1.9534703862        1.1843274164
 C        -0.5520689828       -3.6900999355       -0.3593052981
 C         0.3284533283       -2.3762388808       -2.4482856203
 C         3.5837575934       -0.9970753380       -0.2978406649
 C         2.8060151619        0.2649567268       -0.2032271414
 C         3.6658048165        1.5229216537        0.1534256845
 C         2.8001653707        2.3981277611        1.0806719769
 C         2.4987507220        1.8009186481        2.5043847020
 C         4.9463470816        1.0835113603        0.9001393763
 C         4.0426349492        2.3109758860       -1.0804701241
 O         1.5827590084        0.2517955309       -0.3378690532
 O         2.3796327319        3.4674737990        0.7263025131
 C         1.4911977622        2.5898454851        3.3210006178
 C         1.4541803976        2.1569252530        4.8142422415
 C         0.1544799617        1.7035565403        5.5566883235
 C        -0.3720674778        0.4165375952        5.0056044126
 C        -1.2416049638       -0.6182589560        5.9036864469
 O         2.5451136980        2.2215307415        5.3460147076
 O        -0.1995425132        0.1550052220        3.7912487762
 C         0.4280636689        1.5034583884        7.0969164933
 C        -1.0034021462        2.7409496262        5.3322891423
 C        -0.4311681216       -1.7504470141        6.5977390955
 C        -0.1683640079       -2.7900277935        5.4742458042
 C        -1.1001920119       -4.0794896947        5.3249108486
 C        -2.4433299510       -3.7076183641        4.5693024020
 C        -3.7770394008       -3.8918749551        5.3193865048
 C        -0.2812330494       -5.0307143658        4.4028909082
 C        -1.3357673190       -4.7301025530        6.6976037689
 O         0.5686004015       -2.4179439235        4.5669181749
 O        -2.4165851594       -3.2358641889        3.4387897969
 C        -4.9929969202       -3.4936614242        4.4852058490
 C        -5.5504558791       -2.1188112418        5.0041221459
 C        -6.8674790180       -1.5808168820        4.2944242169
 C        -6.3967370640       -0.9315702243        2.9344731545
 C        -7.2385569869        0.1607510631        2.3393101303
 O        -5.0349642182       -1.5929676127        5.9431794512
 O        -5.4155408166       -1.2983574655        2.3743750732
 C        -7.7994003473       -2.6828853915        3.7739837456
 C        -7.7010616489       -0.6694216148        5.2017562251
 H         4.9544984542        3.6426509335       -6.7890654841
 H         3.7764408114        3.3088798959       -8.1178805027
 H         3.2886801428        3.3592668040       -6.4119974062
 H         3.6657958068       -0.7980741200       -6.7712177543
 H         3.2855997675       -1.8953929772       -5.4044386125
 H         6.1642153664       -0.7864310709       -6.7571205153
 H         7.2860552183        0.0183250037       -5.6764348444
 H         6.9388903275        0.7311120687       -7.2910413312
 H         5.1687653553        2.7397356298       -4.4991411591
 H         6.5021932800        1.4509858010       -4.0941285779
 H         6.7089551672        2.5134734539       -5.4438593940
 H         1.8918986802       -0.0861316708       -4.3369732506
 H         1.9565731413        0.9043278592       -5.8272630269
 H        -2.4319188643        1.7666706427       -7.4026551620
 H        -2.8523271044        0.3746570975       -6.4649331420
 H         1.7333789175        0.9264310265       -7.8853424584
 H         0.5253639332        0.5744739425       -9.0457636636
 H         1.6922147457       -0.6091849158       -8.7876217059
 H        -0.1853918185       -2.1590598165       -8.1210906999
 H        -1.4854578014       -1.8582095560       -7.1495740417
 H        -1.5160743550       -0.9906185448       -8.6136988290
 H        -3.5678085737        2.7965123174       -5.8214634801
 H        -1.9225912775        3.0412311968       -5.1682888065
 H        -0.9939423810        1.3358710540       -0.2657362790
 H        -2.5708382710        0.8801822866       -0.5212635968
 H        -4.6289997153        4.2150262432       -2.3876789272
 H        -4.0368007504        3.9608549298       -4.1137223142
 H        -3.0001790523        4.5456487413       -2.8405790496
 H        -4.4985041282        2.0137409738       -0.9321528551
 H        -5.4148069555        1.8072895991       -2.4199987326
 H        -4.1531426225        0.5707204566       -1.8922979866
 H        -1.7811795867       -0.4865550526       -2.5678649661
 H        -0.2028850864        0.0969428355       -2.1859661926
 H         3.3871645658       -3.0427001544       -0.3630262612
 H         2.4899858443       -2.2363669287       -1.7599930710
 H        -1.0355131309       -4.2515584021       -1.1313368632
 H        -1.3613148987       -3.3488413786        0.3162025732
 H         0.1538383117       -4.3042657356        0.1799713413
 H         0.9767082439       -1.6037586671       -2.8120074585
 H         0.6706874027       -3.3641467676       -2.7195098918
 H        -0.6102997011       -2.2518574265       -2.9195231535
 H         4.5139393340       -0.9322410288       -0.8527113443
 H         3.8512703431       -1.2338066588        0.7020568180
 H         2.2062230345        0.7180982966        2.2952801260
 H         3.3948233830        1.7320541473        3.1428770090
 H         5.6604787312        0.5347251147        0.3337739566
 H         4.7758483545        0.4874439199        1.8006532543
 H         5.4446546734        1.9586519916        1.1657468920
 H         4.7619366586        3.0726638101       -0.9374163684
 H         4.3170787371        1.6215721049       -1.8607247664
 H         3.2009524355        2.9426932468       -1.4134668024
 H         1.8886947178        3.6947424360        3.2874943586
 H         0.4793209713        2.5846779144        2.9099629190
 H        -1.8338972622       -0.0226936092        6.6250168681
 H        -1.9980316419       -0.9714336426        5.2536547368
 H         0.9566635210        2.3888744908        7.3525172139
 H         1.1793936465        0.6975197266        7.2822577223
 H        -0.5117102626        1.3461738947        7.7130570473
 H        -0.6948768222        3.7613195740        5.7287188859
 H        -1.1879862637        2.8369523851        4.2431731431
 H        -1.8949452476        2.4418317300        5.8561494283
 H        -0.9827382331       -2.1216037297        7.4639595704
 H         0.4913420713       -1.3512487375        7.0290899109
 H        -3.7924662246       -4.9855027263        5.5640030706
 H        -3.8444666338       -3.4394058242        6.2876436112
 H        -0.2306115277       -4.4558445258        3.5003025031
 H        -0.8953119643       -5.9498320192        4.2522675071
 H         0.7298227342       -5.0951314066        4.8690196825
 H        -0.3184978878       -4.7812883376        7.1020167722
 H        -1.9290679547       -4.2036713957        7.4049192834
 H        -1.7268673637       -5.7204798521        6.5119129463
 H        -4.6915191879       -3.1908268060        3.4690072960
 H        -5.7420601193       -4.3025008518        4.3927844624
 H        -6.7319352842        0.4798562885        1.4513907900
 H        -8.1723656984       -0.2970452413        2.1662909477
 H        -7.2764008661        1.0139394994        3.0089554365
 H        -8.6120925887       -2.3262670923        3.1198413883
 H        -8.2898758210       -3.2543695353        4.6318793409
 H        -7.3634652078       -3.5380400743        3.2585828078
 H        -7.5437880887       -0.9408402766        6.2431906686
 H        -7.3007952451        0.3278466329        5.2677174644
 H        -8.7074260332       -0.6974910896        4.9034868546
 Na       -0.6248044327       -1.7246548536        2.3954096986
