155

 C         3.9467979625        3.0024913298       -6.9638412384
 C         4.5295594098        1.6285986967       -7.0808741646
 C         5.4265576359        1.0966746631       -5.9085866026
 C         4.5869665453        0.0935654056       -4.9417982183
 C         3.5487209307       -0.8347107180       -5.6205970794
 C         6.6295915625        0.2507352110       -6.4220104797
 C         5.9029937594        2.1920344454       -4.9629036867
 O         4.1831216266        0.8506113327       -7.9526846028
 O         4.7379395545        0.0132874345       -3.7506689002
 C         2.2693324845       -0.1932614529       -5.2261196585
 C         1.0504878770       -0.9274520278       -5.8172924763
 C         0.2058670691       -0.3429244031       -7.0178623267
 C        -0.5467868563        0.9060483481       -6.3806110248
 C        -2.0441769724        1.1954874595       -6.5292010837
 O         0.6317413124       -1.9276237720       -5.3323671279
 O         0.2104524246        1.7479876747       -5.9075746019
 C         1.0730229762        0.1328964042       -8.1496497230
 C        -0.7378651759       -1.4373328389       -7.5390704626
 C        -2.4325126377        2.2355419987       -5.3879436666
 C        -3.1567754126        1.5298867167       -4.2119792522
 C        -3.3706038717        2.2781684340       -2.8524684324
 C        -1.9755796731        2.2538204749       -2.0113557962
 C        -1.7668645361        1.1854712739       -0.9252045583
 C        -3.7742569976        3.8363703283       -2.9108757625
 C        -4.5682007305        1.6306867763       -2.1282902039
 O        -3.4634786415        0.3303870154       -4.3123579761
 O        -1.1292295153        3.0526459438       -2.3270590088
 C        -1.2967681826       -0.0993679704       -1.6189794519
 C        -0.9341535167       -1.1727229283       -0.5031374355
 C         0.0852399964       -2.3630193040       -0.8476487765
 C         1.3778053455       -2.2261829010       -0.0074187385
 C         2.7728789931       -2.2010727186       -0.7633677606
 O        -1.4493820702       -1.1224298481        0.6031712741
 O         1.3664596440       -2.1962432461        1.2227335987
 C        -0.6718753904       -3.5728190317       -0.4254859203
 C         0.4013141469       -2.5514401148       -2.3648311004
 C         3.6523907828       -0.9357472285       -0.5171499581
 C         2.9367678469        0.3876256174       -0.2756377185
 C         3.6031970871        1.6832026891        0.2179198209
 C         2.4968420215        2.4633880097        1.2008848815
 C         2.2387972534        1.7210458934        2.4968800172
 C         4.9248103784        1.4602058651        1.0281273731
 C         3.8984073303        2.4964913607       -1.0376593088
 O         1.7724873692        0.3885980915       -0.5554973091
 O         1.9547774928        3.4845185706        0.8922757407
 C         1.2453899329        2.4675327959        3.4209981125
 C         1.3972737443        2.1357990447        4.9023019269
 C         0.1028283546        1.6766314110        5.6032153541
 C        -0.5009072037        0.3437568028        4.7863557459
 C        -1.4869097360       -0.4733167413        5.6316436204
 O         2.4262174365        2.1443486724        5.5113112580
 O        -0.1476891733       -0.0006120993        3.7167000416
 C         0.3706813384        1.5161241456        7.0671560920
 C        -1.0405037924        2.7774784013        5.4659135526
 C        -0.7150953822       -1.6600534973        6.2659890555
 C        -0.3124777756       -2.6986373466        5.2324396898
 C        -0.9788150741       -4.1327252215        5.1239920750
 C        -2.3698315743       -3.7370985259        4.4768890079
 C        -3.6766518858       -4.0008663016        5.2392567647
 C        -0.2467447022       -5.1292131950        4.2222942971
 C        -1.1251378749       -4.7470590952        6.5849674644
 O         0.5602604301       -2.4652558131        4.4089430517
 O        -2.2710457441       -3.2763352909        3.3206956950
 C        -4.9215320686       -3.5252688251        4.4947937595
 C        -5.5167165387       -2.1922089363        4.9466344548
 C        -6.7596479508       -1.7327678709        4.1282612134
 C        -6.3618477967       -0.9219416998        2.9079749562
 C        -7.3420961856        0.1477037401        2.4185175084
 O        -5.0809421657       -1.6090362434        5.9433621043
 O        -5.3879804058       -1.1535473761        2.2337679417
 C        -7.6843714262       -2.8689219168        3.8043280285
 C        -7.4427888983       -0.6656708542        5.2171109979
 H         4.6567165716        3.8771616562       -6.7400113784
 H         3.2100100141        3.2065430073       -7.6929493202
 H         3.2905443758        2.9801691121       -6.0484113930
 H         3.5680264562       -0.9854117568       -6.6769872579
 H         3.6150420376       -1.7968116888       -5.1308221169
 H         6.2877895758       -0.2943000979       -7.3185471659
 H         7.0105475025       -0.4863405816       -5.7986092521
 H         7.4911789635        0.9445167150       -6.5155038789
 H         5.0382191990        2.3645785739       -4.3730937239
 H         6.7335540350        1.8501547655       -4.4199714264
 H         6.1440181480        3.0953923418       -5.5260071280
 H         2.1880238992       -0.1616323011       -4.1140228779
 H         2.2102704686        0.7727696454       -5.5829039899
 H        -2.4339399258        1.6523847429       -7.4869337123
 H        -2.4886181205        0.1561974341       -6.3384434926
 H         1.8347075559        0.9043066071       -7.9703579157
 H         0.5469194376        0.3848062649       -9.1002669381
 H         1.5878309231       -0.7391677718       -8.4449383973
 H        -0.2332215891       -2.3363358242       -7.8937299842
 H        -1.4704883237       -1.8735013610       -6.7722552580
 H        -1.3809184698       -1.0216956718       -8.3003235634
 H        -2.9725683737        3.1381887003       -5.7661548439
 H        -1.5496982667        2.5781918425       -4.8544042523
 H        -1.0005413525        1.5624913268       -0.1807915659
 H        -2.6532945321        1.0581562130       -0.2392976087
 H        -3.9664167291        4.1884484671       -1.9068929558
 H        -4.5323408356        3.9566584712       -3.6817894367
 H        -2.8986403705        4.4800072168       -3.1323998210
 H        -4.7677013843        2.0462338756       -1.1017994351
 H        -5.4972948958        1.8818921710       -2.6333294469
 H        -4.1904972440        0.5785453297       -2.1356330124
 H        -2.0849935736       -0.5217746360       -2.2657120432
 H        -0.4126539823        0.0848887692       -2.2692602516
 H         3.2674302674       -3.0810874031       -0.3054013197
 H         2.6238490127       -2.3370723641       -1.8449836232
 H        -1.4895771616       -3.7904372527       -1.1791383741
 H        -1.0290883391       -3.6167226349        0.5290126532
 H         0.0557308853       -4.3637698771       -0.5385884097
 H         0.6772364804       -1.5397791981       -2.6849904491
 H         1.1036418059       -3.3926421789       -2.4769463773
 H        -0.4374449431       -2.8045043601       -3.0296753107
 H         4.3418789955       -0.8731250352       -1.3739611355
 H         4.3107073871       -1.1410227376        0.3649582917
 H         1.9795660274        0.7477570376        2.2407308429
 H         3.1804301234        1.5535311446        3.0136995157
 H         5.6915354487        1.1127046767        0.3013023193
 H         4.9002682192        0.6526959366        1.7173176864
 H         5.3949058232        2.3334468683        1.5350402509
 H         4.6231949921        3.3217265795       -0.8569225096
 H         4.2847464565        1.8175881080       -1.7823465355
 H         3.0642961544        3.0136478203       -1.4505324791
 H         1.3972824274        3.4773439223        3.3267869750
 H         0.2110072568        2.2648277618        3.0840582500
 H        -1.9386677987        0.2390188108        6.3115814315
 H        -2.4078765077       -0.7349838454        5.0222134581
 H         1.0137649392        2.3114297624        7.4989736707
 H         0.9743763091        0.6257051741        7.0426523942
 H        -0.5167373504        1.3281562671        7.6220638287
 H        -0.9009889050        3.6520709701        6.0719759087
 H        -1.0597873511        3.0303280957        4.4090821130
 H        -2.0369476738        2.4017610363        5.7884355688
 H        -1.3238736361       -2.1010905875        7.0421504807
 H         0.2752935040       -1.4452083412        6.7179307429
 H        -3.7436940159       -5.0168014418        5.5802558784
 H        -3.6433168918       -3.4472938056        6.2143003566
 H         0.0968172279       -4.5154070006        3.3809777161
 H        -0.8257680644       -5.9802255027        4.0328628491
 H         0.5568925933       -5.3464623556        4.8528264032
 H        -0.1230937277       -4.7869874899        6.9835410992
 H        -1.6067594748       -3.9844437853        7.1667579368
 H        -1.6876073914       -5.6737297617        6.6333493840
 H        -4.7791579605       -3.4028088922        3.3913555242
 H        -5.7585403864       -4.2287579983        4.6722634378
 H        -6.9010907776        0.5570850359        1.5006806771
 H        -8.3630753050       -0.3055640384        2.2760726190
 H        -7.2436495339        0.9665001448        3.1423374648
 H        -8.6796262190       -2.5904654059        3.4545830967
 H        -7.9536906404       -3.4335662657        4.6691503285
 H        -7.2604779498       -3.6515221403        3.1874521155
 H        -7.8740921155       -1.2832442335        6.0183663405
 H        -6.8035685226        0.1021980382        5.7003764756
 H        -8.3701645406       -0.1641353273        4.7602784695
 Na       -0.6409319843       -1.9414291095        2.4854056985
