155

 C         4.7812862068        4.3302161736       -5.9410241505
 C         4.9841219793        2.8953054909       -6.3587753122
 C         6.0392694343        2.0304723795       -5.5210755062
 C         5.1824041030        1.3962976601       -4.3902551568
 C         4.3172942847        0.2016147926       -4.7576575014
 C         6.7001419258        0.9498063433       -6.5185346350
 C         7.1131714562        3.0876452603       -4.9157151143
 O         4.5121451227        2.4224880357       -7.3503383021
 O         5.0356512939        2.0178743400       -3.3271920229
 C         2.8850240204        0.5997878071       -5.1449943892
 C         2.1349132185       -0.6892516889       -5.4125900497
 C         1.0821053463       -0.6005361082       -6.5827630755
 C         0.0225729005        0.5569068883       -6.1944186179
 C        -1.2862299106        0.0971333572       -5.6527410239
 O         2.3428664086       -1.7359531400       -4.7351541382
 O         0.4046507715        1.7085211383       -6.1768794506
 C         1.8358282808       -0.2536413709       -7.8432115967
 C         0.2533475272       -1.9423978367       -6.5627707981
 C        -2.1657859469        1.2417479916       -5.2096574183
 C        -3.2787273668        0.9910294249       -3.9889907761
 C        -3.3972559061        2.2059509118       -3.0261225370
 C        -2.0959573703        2.0804132195       -2.1797131958
 C        -2.0098857410        1.0119629021       -1.0482319478
 C        -3.2571375927        3.6181172375       -3.8041361747
 C        -4.7226397579        2.1504651070       -2.1909785095
 O        -3.8197714731       -0.0524666274       -3.7310007630
 O        -1.0513038394        2.6315428784       -2.5690567484
 C        -1.4369547376       -0.2258387642       -1.5729361872
 C        -0.9034184752       -1.1929802892       -0.5369625839
 C         0.0395491385       -2.3136003281       -0.8347099988
 C         1.5158634970       -1.7535383276       -0.2237525339
 C         2.6727363229       -1.3870509250       -1.1583315883
 O        -1.3537232994       -1.0020186917        0.5823484528
 O         1.6276755512       -2.0146856794        0.9385507024
 C        -0.4241754617       -3.6502852357       -0.1850862121
 C         0.0054928714       -2.4348471107       -2.3504233082
 C         3.1732299017        0.0483397071       -0.8125645214
 C         2.1054346591        0.9512470545       -0.1446823701
 C         2.4079006191        2.5119619385       -0.0276993018
 C         1.4821280380        2.9511536781        1.1843369489
 C         1.5085346090        2.3117748876        2.5609680029
 C         3.9011693001        2.5590090103        0.3056957545
 C         2.0153505917        3.1395015596       -1.4418327554
 O         0.9942948143        0.4990543372        0.0098528091
 O         0.6712889288        3.7950866775        0.9805101423
 C         0.3181590624        2.7666855193        3.4287362712
 C         0.5212829358        2.0486639899        4.7971795368
 C        -0.7409981631        1.4546232029        5.5400537505
 C        -1.1385775451        0.0083282354        4.9926611667
 C        -1.9905552691       -1.0442900097        5.7873996578
 O         1.6112762402        1.9888443771        5.3157531507
 O        -0.6573460829       -0.2324214117        3.9117673381
 C        -0.2412882035        1.1944842890        7.0577636091
 C        -1.9634995475        2.3764837462        5.3508525163
 C        -1.2395313650       -2.3238952907        6.3786182763
 C        -0.7052733504       -3.2412677026        5.2398400186
 C        -1.3975369182       -4.6218492432        4.8695630713
 C        -2.2981854890       -4.3134562987        3.4716450974
 C        -3.3821523968       -5.1815381988        3.2132191782
 C        -0.2626801103       -5.5713033591        4.2454544975
 C        -2.1120864368       -5.3935688116        5.9975804183
 O         0.2131228853       -2.8451051527        4.5569752284
 O        -1.9511522383       -3.4509815270        2.6883727678
 C        -4.7411785153       -4.3333516757        3.1210490693
 C        -5.0173623732       -3.3599790161        4.2719544275
 C        -6.0807832831       -2.3651639775        4.3117118433
 C        -6.0905005856       -1.4498512811        2.9154234062
 C        -7.1768987810       -0.4248556130        2.6727738565
 O        -4.1406268005       -3.3680876922        5.1686532694
 O        -5.1504825544       -1.5852805272        2.0973874572
 C        -7.4163888813       -3.2634362779        4.3508211344
 C        -6.0150389699       -1.6320034198        5.5661217435
 H         5.2311084902        5.1243512365       -6.4381852958
 H         3.7938343596        4.7919490329       -6.1024252329
 H         5.1412284763        4.3508201963       -4.9420474689
 H         4.7624814287       -0.4612273418       -5.5156261338
 H         4.2862891195       -0.3893111327       -3.8542853687
 H         6.0148285950        0.8221976224       -7.3072154124
 H         6.6670458330       -0.1166723902       -6.0994957117
 H         7.6963189967        1.1203716357       -6.8522130656
 H         6.6812112934        3.6197890288       -4.0551465447
 H         7.9372951220        2.4590305683       -4.5723659311
 H         7.4394307674        3.7012703702       -5.7145549618
 H         2.3774033976        1.1332156184       -4.3780863540
 H         2.7835151858        1.2318308771       -6.0741126235
 H        -1.7582078096       -0.5240474013       -6.3994100664
 H        -1.1614193434       -0.5558420938       -4.7667274506
 H         1.7097571850        0.7811400522       -7.8482597390
 H         1.1996391985       -0.6912950217       -8.6978349809
 H         2.8652262069       -0.5807212676       -7.9498422023
 H         0.9518549058       -2.8284447282       -6.7435450053
 H        -0.2664967542       -2.2462549055       -5.6599207662
 H        -0.4662576246       -1.9362029715       -7.2608304106
 H        -2.9093312199        1.5722559665       -5.9592884302
 H        -1.5973272745        2.1216233483       -4.9274936536
 H        -1.4457099499        1.4326170064       -0.2403534965
 H        -3.0150449220        0.8808140022       -0.5810280632
 H        -2.2029721708        3.9729151738       -3.8680417090
 H        -3.7151857612        4.3364133544       -3.1023878254
 H        -3.6536651433        3.5611036131       -4.8008372107
 H        -4.6195029469        2.7925993291       -1.3594971508
 H        -5.5667897411        2.6320331337       -2.7459176161
 H        -4.8892028964        1.0522771602       -1.9167338777
 H        -2.1385653370       -0.8049510447       -2.1604233214
 H        -0.5362751739        0.1058859291       -2.1715814143
 H         3.4761524019       -2.1219532004       -0.9605017657
 H         2.4181848110       -1.4854197167       -2.1837495606
 H        -0.4232732290       -3.6110954434        0.9869223914
 H         0.0457069586       -4.5761190241       -0.5908539336
 H        -1.5008188206       -3.7575663938       -0.5021719284
 H         0.2321551771       -1.4626199178       -2.8238492632
 H         0.6594737999       -3.2705313393       -2.6177276427
 H        -0.9749187597       -2.7245806916       -2.8208842873
 H         3.5463103114        0.5590971009       -1.7672781795
 H         3.9491070930       -0.0176973498       -0.0506913810
 H         1.4019217011        1.2676968030        2.6023534356
 H         2.4883418346        2.5972694575        3.0058342526
 H         4.4429865382        1.9753354227       -0.3934751420
 H         4.0167945540        1.9988847598        1.2581868215
 H         4.2596998162        3.5364463433        0.3059525558
 H         2.5125295380        4.0531010433       -1.6047971158
 H         2.2482045895        2.3555096473       -2.1405191525
 H         0.9498627680        3.4387550634       -1.5096598889
 H         0.3726394829        3.8930603215        3.5801460088
 H        -0.5648688523        2.4717612914        2.9080100511
 H        -2.4806061594       -0.5267986242        6.6308690206
 H        -2.8039302452       -1.3643742809        5.1244373781
 H         0.3543433212        2.0300184363        7.3625137801
 H         0.4223054222        0.3086532149        7.1332715971
 H        -1.0674850329        1.1558982707        7.8040215977
 H        -1.7747735708        3.4352526972        5.6755329840
 H        -2.3363066699        2.4262446813        4.3168747860
 H        -2.7778916786        2.1383348925        6.0060905521
 H        -1.9546163397       -2.7090802402        7.0938430878
 H        -0.4914188187       -1.7878493226        7.0530203335
 H        -3.2770140132       -5.6429027247        2.2304713650
 H        -3.4871139205       -5.9728867106        3.9757461003
 H         0.1632065119       -6.2789310825        4.8557546601
 H         0.4568107452       -4.7864040490        3.9458522908
 H        -0.6032498840       -6.1100286055        3.3573046552
 H        -1.8090253365       -5.2202405659        7.0234401299
 H        -3.2554317612       -5.3146976786        6.1669124476
 H        -1.9834435958       -6.4686460030        5.8606626081
 H        -4.8023978867       -3.6330639208        2.2613872575
 H        -5.4847471810       -5.0649299459        3.0079662899
 H        -7.1828309642       -0.1104094448        1.6176966245
 H        -8.1455393305       -0.6209536632        3.1535663891
 H        -6.8167988552        0.4273073024        3.3288120915
 H        -8.2613046028       -2.7424824366        4.7572592008
 H        -7.3035505758       -4.0844755804        5.0906581847
 H        -7.5902598568       -3.7331963031        3.3776141809
 H        -5.9059844825       -2.3112992857        6.5064924113
 H        -5.0242616409       -1.1946922262        5.6381512365
 H        -6.9790262530       -1.1991112335        5.6985083575
 Na       -0.3760485856       -1.9376519532        2.3363280416
