155

 C         2.3057052455       -8.9621851653       -1.2980376034
 C         3.3714053022       -9.1057183087       -0.1051312051
 C         4.2084796745       -7.8657639669        0.4374028389
 C         3.2046120091       -6.7042875679        0.9591947522
 C         3.8673791094       -5.7302713746        1.8409897672
 C         5.1084057934       -8.4933465238        1.5710528344
 C         5.0808376404       -7.1306579398       -0.6969044118
 O         3.6054058248      -10.2547496588        0.2385860608
 O         2.0281478679       -6.7379684386        0.6908511577
 C         2.8225015863       -5.0903990494        2.7433136565
 C         2.9345832040       -3.5597467598        3.1061639334
 C         1.5827973098       -2.7422908848        3.3860243211
 C         1.8088513751       -1.3078425240        3.8310058409
 C         2.6214895426       -0.3315407853        2.9023364509
 O         4.0104842327       -3.0225963995        3.2551198811
 O         1.3355069102       -0.8501523029        4.8568517272
 C         0.9591599914       -2.6457803552        1.9489090415
 C         0.7067975524       -3.4724271231        4.3503052383
 C         2.6594741667        1.1477843475        3.2733645926
 C         1.7278416855        1.9392113723        2.2640714382
 C         1.5609084721        3.5328842501        2.4963494967
 C         2.3888404163        4.1418374066        1.3386672041
 C         3.2423260183        5.3698850402        1.6828086995
 C         0.0251663924        3.9692343546        2.2247224278
 C         2.0322812337        3.9478723697        3.9371961334
 O         1.1882830120        1.4057268382        1.3436695630
 O         2.3869571717        3.6494939898        0.2280832582
 C         4.2140419647        5.6234132138        0.5857743231
 C         5.5751043237        4.9175604517        0.8040615891
 C         6.7101171413        5.1050546388       -0.2543636985
 C         6.2836969766        4.2233772305       -1.4116817426
 C         6.4852742370        2.7237268116       -1.2737769616
 O         5.7187981276        4.1897166877        1.7661385486
 O         5.6071903644        4.7813129871       -2.2783823267
 C         6.9315234795        6.6599900832       -0.5749177895
 C         8.0168065882        4.5697001610        0.4892621990
 C         5.9629430699        1.9650189681       -2.4995923462
 C         4.5362584869        1.5417010319       -2.3514384575
 C         4.1164512142        0.0920513817       -3.0286962027
 C         2.6582990800       -0.1668806627       -2.7518709899
 C         1.6749876630       -0.3221888911       -3.9002582193
 C         4.4836163843        0.1165250695       -4.5450910939
 C         4.8091411649       -1.0200548965       -2.1440598464
 O         3.6568408525        2.1781355571       -1.8328327060
 O         2.2265281111       -0.1468749048       -1.6258329688
 C         0.1542610368       -0.2787132036       -3.4411428692
 C        -0.3387127359        1.0732817559       -3.1180691415
 C        -1.9049173555        1.1642083690       -2.7525792077
 C        -2.0693410860        1.1108089426       -1.1788401869
 C        -3.3248346019        0.5076709336       -0.5195344777
 O         0.3475091970        2.1028099300       -3.0487725526
 O        -1.2447872761        1.7695274949       -0.5626000840
 C        -2.3410389148        2.6010313459       -3.1800233913
 C        -2.8084246268        0.0794948367       -3.4267383547
 C        -4.5309520926        1.4942135401       -0.5482344275
 C        -5.6233305345        0.9625009280        0.3835233452
 C        -6.9931543968        1.7501865752        0.6319077473
 C        -7.7512428697        1.2507667609       -0.7451372094
 C        -9.1163752374        0.6145340442       -0.6461814875
 C        -7.6145155628        1.2085989213        1.9868834171
 C        -6.9671442964        3.2927207973        0.5394521749
 O        -5.4578289935       -0.1250718826        0.8684961723
 O        -7.1384897722        1.4207061246       -1.7604149148
 C        -9.3984351455       -0.0672821507       -2.0519697747
 C       -10.5989028788       -1.0371771667       -2.0564442429
 C       -12.0236860639       -0.6347830008       -1.6849322036
 C       -12.1410882925       -0.6248026414       -0.1192257680
 C       -12.7109001729       -1.8683327162        0.5598938033
 O       -10.3991721965       -2.1753115643       -2.4437052695
 O       -11.7748039236        0.3433304264        0.5021528865
 C       -12.5558535518        0.8055220465       -2.1236751985
 C       -12.8692350526       -1.7401134464       -2.3908670821
 H         2.1881288390       -7.9728487915       -1.7232803658
 H         2.6416244240       -9.6813694100       -2.0185709062
 H         1.3470980217       -9.3828289888       -0.9022857511
 H         4.4270837925       -6.3561094101        2.5906305398
 H         4.4169097292       -5.0637219136        1.2702875368
 H         5.7776914351       -9.2005143848        1.0189734201
 H         4.5369138338       -9.0718120074        2.2946120836
 H         5.8596266090       -7.7753134680        1.9992095476
 H         4.5693693708       -6.6655555680       -1.5628775453
 H         5.4538718126       -6.2572145696       -0.1290332484
 H         5.8022924727       -7.8114898053       -1.0517728508
 H         1.8378500094       -5.2779882594        2.1648457018
 H         2.8542468316       -5.6077497047        3.7423526875
 H         3.6319638786       -0.7485762250        2.8434720269
 H         2.1667280097       -0.5232954688        1.9390992733
 H         0.7494157996       -3.6413857947        1.6560871570
 H         1.8229869746       -2.4466017117        1.2670219293
 H         0.0855572204       -2.0496864060        1.6517521012
 H         0.1537011002       -4.3291220698        3.9797193365
 H         1.3209992640       -3.8027901100        5.1845022121
 H         0.0439162339       -2.7695256721        4.8850038342
 H         3.5800961317        1.7006005409        3.2839010815
 H         2.1442587119        1.3309762855        4.2058772110
 H         2.6441135972        6.2568667147        1.9010990004
 H         3.6497576488        5.0741386931        2.6125664640
 H         0.0126476638        5.0615748037        2.1747806165
 H        -0.5988933723        3.6292261618        2.9864029996
 H        -0.2498126884        3.5274120927        1.2604347478
 H         1.6940266919        3.1605480950        4.6427685919
 H         3.1212162064        4.0299270382        4.0124277825
 H         1.6796251665        4.9425789600        4.1313013265
 H         3.8880651573        5.3202135501       -0.3963139633
 H         4.3842170753        6.7224642071        0.4508168100
 H         7.5430139390        2.4690124496       -1.1363681772
 H         5.8682174960        2.3073235132       -0.4400714509
 H         7.2842388683        7.1546441547        0.3007295465
 H         6.0838278096        7.1901021187       -0.9877365647
 H         7.6180478102        6.6041712887       -1.4208727316
 H         8.7522334047        4.5294290141       -0.3327986856
 H         8.3039232277        5.3351811894        1.1807402567
 H         7.9482131828        3.5509452199        0.8399994385
 H         6.6347271299        1.1359873802       -2.6504104595
 H         6.1513112567        2.5462180033       -3.4254531644
 H         1.8536940560        0.4790683368       -4.6183695195
 H         1.7315194716       -1.3063688514       -4.4477008732
 H         5.4951063349        0.2266934619       -4.5092942487
 H         4.0630332710        1.0078246584       -4.9992190265
 H         4.2060000544       -0.7946671791       -5.1144659617
 H         5.5323431012       -1.5353850296       -2.8002894419
 H         5.4268771340       -0.5412189398       -1.3632017334
 H         4.0983847913       -1.7451859591       -1.6995989781
 H        -0.5879730883       -0.6765626825       -4.2213441939
 H        -0.0973331304       -0.8119687845       -2.4942216424
 H        -3.6131839713       -0.4660196925       -0.9589735037
 H        -3.0199586259        0.1454224652        0.4765078983
 H        -1.6085074169        3.3258133011       -2.9079306888
 H        -3.3583283321        2.8530545749       -2.8294293342
 H        -2.5580876978        2.5077054420       -4.3002334846
 H        -3.8688405831        0.2247578102       -3.3166614559
 H        -2.7309579346        0.1222801375       -4.4979200654
 H        -2.5673985626       -0.9670295270       -2.9914998044
 H        -4.9517017788        1.6504104838       -1.5492197734
 H        -4.1855920761        2.4786647184       -0.1411433883
 H        -9.2354304977       -0.1176289320        0.1569638362
 H        -9.8996146909        1.3156096154       -0.4151083851
 H        -7.1339396503        1.7094630841        2.8311476215
 H        -7.6416128204        0.1422470987        2.1000116625
 H        -8.6000335689        1.6690134722        1.9867147093
 H        -7.9560652229        3.6139985506        0.4425862936
 H        -6.5153714137        3.9145889238        1.3119292015
 H        -6.5832327111        3.5779703146       -0.4181905428
 H        -9.5051667598        0.7407741410       -2.7803752144
 H        -8.4669074243       -0.6168797821       -2.3670538232
 H       -12.3928732300       -2.7422309384       -0.0238699970
 H       -12.1183583123       -1.8312233720        1.4896316591
 H       -13.7692177598       -1.8448833935        0.8270491323
 H       -12.7589958812        0.8135055383       -3.1732683362
 H       -11.8608150820        1.6277149743       -2.0353209604
 H       -13.4556392060        0.9282603972       -1.5574130467
 H       -13.8963581567       -1.7503858546       -1.9826924972
 H       -12.9928781422       -1.4111195489       -3.3918978460
 H       -12.4254110364       -2.7445385605       -2.3917294450
 Na        1.1325419838        2.1775994927       -0.9777859139
