155

 C         5.3607862680        5.8494153623       -5.1759504778
 C         5.4887300964        4.2904964147       -5.3735615729
 C         6.3500691019        3.4211021892       -4.3039379271
 C         5.2313759524        2.5226373851       -3.5991366179
 C         5.0134378237        1.0193828541       -4.1241930095
 C         7.4685740404        2.6449930992       -5.0348690637
 C         7.0514279970        4.2346579105       -3.2132461415
 O         5.0047940908        3.7711693216       -6.3145994478
 O         4.6363649210        3.0569978439       -2.6724339735
 C         4.1908515486        1.0172866015       -5.4509178303
 C         2.8012628367        0.2386184028       -5.4629772100
 C         2.0261618850        0.2154589500       -6.7950726909
 C         0.5986514179        1.0018191017       -6.6556781081
 C        -0.2175831708        0.5432018577       -5.3523505485
 O         2.4937240991       -0.4496926120       -4.5381458124
 O         0.2200784731        1.8483885977       -7.3903387743
 C         2.8703507342        0.9652872800       -7.9701477311
 C         1.7378762015       -1.2483736433       -7.1267615546
 C        -1.5175728874        1.2799324928       -5.0408166418
 C        -2.7100433653        0.4217751384       -4.7174548387
 C        -3.8974984727        1.1771829139       -4.0088409435
 C        -3.2090820535        1.2520965876       -2.5719131188
 C        -2.8315453273       -0.0402686771       -1.7728978758
 C        -4.1535133476        2.5662489583       -4.5389832955
 C        -5.2098440386        0.2570143214       -4.0139976224
 O        -2.7602932998       -0.7896757079       -4.8891671530
 O        -2.9504710681        2.3791636735       -2.1176986508
 C        -1.3571739690       -0.5329317789       -2.0389084544
 C        -0.8595308456       -1.3511503749       -0.7944953302
 C         0.2838687643       -2.3355603047       -0.9803244125
 C         1.4916950226       -1.5997861764       -0.1902852929
 C         2.6673183871       -0.9472497227       -0.9500447808
 O        -1.5508725212       -1.4334896076        0.1909045443
 O         1.5321718834       -1.5441908804        0.9944667606
 C        -0.0952303985       -3.6296339480       -0.2947470174
 C         0.6577574577       -2.7714586130       -2.4488694939
 C         3.0528997901        0.4892523602       -0.4650108878
 C         1.7000904116        1.3102832014       -0.3357080814
 C         1.8476759402        2.7964621248       -0.0686666957
 C         0.9630644030        3.2049774012        1.3210376512
 C         1.5237074162        2.5533734712        2.6352473222
 C         3.2704507905        3.1867370498        0.1435888152
 C         1.0978059322        3.5479016052       -1.1730597471
 O         0.6256515414        0.7001786844       -0.3365731018
 O         0.0535058807        3.9966768353        1.3229277285
 C         0.2113062078        2.1813075412        3.4447827991
 C         0.4967972130        1.9030984150        4.8438764989
 C        -0.5518833171        1.2271072775        5.8055263191
 C        -0.7622300207       -0.1795057184        5.1838659106
 C        -1.0940725621       -1.2964878917        6.1713884243
 O         1.6411361611        2.0636338215        5.2624643627
 O        -0.8609450508       -0.3220692728        3.9863785503
 C        -0.0963267598        1.3859349094        7.3175143826
 C        -1.9376220760        1.9386221754        5.7493215025
 C        -0.2899334389       -2.6083736376        6.3005618366
 C        -0.2346248890       -3.4092788115        4.8749865294
 C        -1.1349423102       -4.6946013240        4.5884447422
 C        -2.2565320953       -4.3972713940        3.5894161451
 C        -3.1927710325       -5.4941885458        3.1563330338
 C        -0.1614278251       -5.8631509034        4.0154104485
 C        -1.7717879931       -5.1583874701        5.9394986780
 O         0.5377393495       -2.9744313779        4.0640451170
 O        -2.3057874145       -3.2288611463        3.0910427634
 C        -4.6662667486       -4.8268567070        2.9186925503
 C        -5.5106923860       -4.3339263811        4.2880740916
 C        -6.9531652668       -3.7759462179        4.0749600062
 C        -7.0162266126       -2.6564272854        2.9836908780
 C        -7.6795963388       -1.3826696732        3.2192402114
 O        -4.9447278328       -4.4589693364        5.3854363087
 O        -6.4025063870       -2.8290172220        1.8953719494
 C        -7.8176420809       -5.0011878100        3.6148618772
 C        -7.3629351948       -3.4157394397        5.4528115665
 H         5.9387684948        6.3940190765       -4.4879987052
 H         5.6601897420        6.3006349079       -6.1788622384
 H         4.4045212307        6.1665165003       -4.8584260007
 H         5.9764052251        0.6165066150       -4.3469573398
 H         4.5495738369        0.3323474744       -3.4311719372
 H         6.9664738268        1.9908164633       -5.7614149887
 H         8.0336765106        2.1562645573       -4.2858709662
 H         8.2098924116        3.3418027967       -5.5375728676
 H         6.3975618531        5.0739497903       -2.9032759449
 H         7.2451121337        3.6109341217       -2.3273841554
 H         7.9746344780        4.8047734257       -3.4612157190
 H         4.1535847594        2.0259537968       -5.7954565977
 H         4.8474500487        0.4454701872       -6.1738438966
 H        -0.2530530314       -0.5455437108       -5.2369913026
 H         0.4283744840        0.7598944688       -4.4699168880
 H         2.9273566834        2.0321376203       -8.0178496185
 H         2.4136786626        0.5865002684       -8.8542246042
 H         3.9113144295        0.5205766068       -8.0220467139
 H         2.6703554408       -1.8332985199       -7.3814413475
 H         1.1659421485       -1.6017882757       -6.3479507584
 H         1.0982614951       -1.3032778003       -7.9623861164
 H        -1.8494801121        1.8749530628       -5.9438524615
 H        -1.2453699354        2.0884173213       -4.2978606550
 H        -3.1790487880        0.2182749047       -0.7590824397
 H        -3.3628162620       -0.9308542263       -1.9806137471
 H        -3.8468399706        2.5852064301       -5.5677690990
 H        -3.6479047461        3.2763275659       -3.8837665701
 H        -5.1947886705        2.8789535945       -4.5025822359
 H        -5.9372927665        0.7088452681       -3.2745746479
 H        -5.8421012408        0.2852924375       -4.9102389453
 H        -5.0230575679       -0.8037985074       -3.9287546581
 H        -1.3906602771       -1.2120824005       -2.8969619214
 H        -0.7027276030        0.2610989885       -2.1648866655
 H         3.5931654405       -1.5042249761       -0.9813958066
 H         2.4812855790       -0.8583592957       -2.0463289020
 H         0.5432054839       -3.7065604981        0.6879698777
 H         0.0586744769       -4.5149377628       -0.9331007303
 H        -1.1551371108       -3.7173141581       -0.0287801995
 H         0.4766100278       -2.0919917990       -3.2862991142
 H         1.7120866094       -3.0735124704       -2.5256660427
 H         0.0767142465       -3.6176612830       -2.6370501705
 H         3.8357520475        1.0237744762       -1.0924091015
 H         3.5191281850        0.3594914799        0.4990840390
 H         1.9633810379        1.5397567950        2.3596521970
 H         2.2324563995        3.0973521216        3.2351331673
 H         3.8262474742        3.2878986874       -0.7912943246
 H         3.8358210974        2.6028287498        0.7613734345
 H         3.2636853814        4.1580510247        0.6119905999
 H         1.1229516337        4.6398608457       -1.0187851189
 H         1.4384532569        3.2398030339       -2.1460508371
 H         0.0476767911        3.3898134628       -1.0406591437
 H        -0.5110050347        3.0160108279        3.4983217834
 H        -0.2034726766        1.2638590325        2.9088257876
 H        -1.1435086000       -0.8050026259        7.1708097117
 H        -2.1175800960       -1.6506014272        5.9196597256
 H        -0.3758144544        2.4267708697        7.5311247878
 H         0.9496023204        1.1684095209        7.5138508583
 H        -0.6370071188        0.7381042413        8.0084500758
 H        -1.7558972347        2.8940245260        6.2390693165
 H        -2.2771139204        2.0066604271        4.7263082036
 H        -2.7009917750        1.3362536768        6.3193062406
 H        -0.6057312192       -3.1568434576        7.2272181514
 H         0.6932841366       -2.2901342579        6.5635245229
 H        -2.7850963391       -5.9324060131        2.2412752304
 H        -3.3100819208       -6.2775990024        3.8805194134
 H        -0.0595307191       -6.8115779269        4.5351843277
 H         0.7946564695       -5.4000572616        3.8396743896
 H        -0.4584883265       -6.0570072602        3.0211366680
 H        -1.0281899048       -5.5649713054        6.6962678992
 H        -2.3374077347       -4.2853421371        6.3732064130
 H        -2.4751971363       -6.0336590092        5.9035151638
 H        -4.4391686976       -3.9296707200        2.3398601682
 H        -5.1636031187       -5.5170164674        2.2601465498
 H        -8.7379204657       -1.4942775520        3.1486253274
 H        -7.6211885978       -0.9251613729        4.1784628731
 H        -7.3276402414       -0.6359300821        2.5180639657
 H        -8.8391969568       -4.6035059762        3.4735944100
 H        -7.8800240764       -5.7407470329        4.3708238084
 H        -7.5526859344       -5.3221660122        2.6335848803
 H        -7.5916127915       -4.2806230371        6.0906397620
 H        -6.5681752593       -2.7311672716        5.9590808433
 H        -8.4247811356       -3.0736604471        5.4600872679
 Na       -0.5801020535       -1.9320179369        2.2647146917
