155

 C         4.5287686209        5.4349730729       -4.4775771881
 C         5.6349310913        4.6125137861       -4.9794991370
 C         6.4809440519        3.7667835662       -3.9751147435
 C         5.3950756247        2.7595830534       -3.3486948766
 C         5.0543648903        1.4306459941       -4.0118629075
 C         7.6127727349        3.0141567557       -4.8124314551
 C         7.1618056148        4.5091515883       -2.8327845868
 O         5.8036604046        4.4143360660       -6.1654076083
 O         4.8345201681        3.0177515983       -2.2539707138
 C         4.3233012217        1.7550422649       -5.2966774506
 C         3.1983024574        0.7988253338       -5.6372859098
 C         2.4141030241        0.8351605602       -6.9720337741
 C         0.9069811714        1.3008960745       -6.6027252310
 C        -0.2053689706        0.2651919377       -6.3159796110
 O         2.8651772241       -0.0250456478       -4.7940130698
 O         0.7300413670        2.5018625992       -6.4297572541
 C         2.9054570235        1.8066931549       -8.0383178593
 C         2.1382004538       -0.5865794342       -7.6402808527
 C        -1.3875582245        0.9989755897       -5.5408738845
 C        -2.3854286140       -0.0743662947       -5.0652436222
 C        -3.7156383847        0.4486631934       -4.3422162067
 C        -3.2989059863        0.7772522300       -2.8334817738
 C        -3.2387652624       -0.4098585790       -1.7793932966
 C        -4.3427767736        1.6486486028       -5.0216044004
 C        -4.7152469058       -0.8240980931       -4.4115809028
 O        -2.1029830427       -1.2407577728       -5.2735114311
 O        -3.2731701618        1.9545739322       -2.5365265194
 C        -1.9694437182       -1.2758576672       -2.0641672966
 C        -1.2429902855       -1.6631827993       -0.8130962455
 C         0.2225461265       -2.1765153325       -1.0082612068
 C         1.2601327223       -1.2318804489       -0.1277412273
 C         2.6987768683       -0.7466630217       -0.5907991174
 O        -1.7663658004       -1.6496019430        0.3125162329
 O         0.9058591157       -0.9737538886        1.0128741269
 C         0.4896225710       -3.7617471240       -0.6474318296
 C         0.5501046181       -1.9681839985       -2.5363684499
 C         2.9494505037        0.7839569357       -0.1876567864
 C         1.6633488438        1.6325888753       -0.3123741058
 C         1.7706939545        3.1266557281        0.2599269203
 C         0.7021454287        3.2553132933        1.4665694466
 C         1.1100265533        2.4287406892        2.6398843651
 C         3.2256862912        3.5172930739        0.6815683844
 C         1.2701096913        4.1086490946       -0.8052845466
 O         0.6253245704        1.2180955903       -0.7476226765
 O        -0.3936103225        3.8300041705        1.5077307760
 C        -0.0559984278        2.2705507973        3.6262403317
 C         0.3941447675        1.5352437746        4.8655155932
 C        -0.6373007960        1.0415509402        5.9411255252
 C        -1.1499200023       -0.2710709208        5.3670209650
 C        -1.1138459982       -1.5018063681        6.2620330513
 O         1.4918018419        1.0726952454        4.9513891263
 O        -1.3534676002       -0.3972158195        4.1967334136
 C         0.0922419433        1.0836864157        7.2911170302
 C        -1.8229218180        2.0862704707        6.0214141918
 C         0.1654808480       -2.3283565865        5.9369549877
 C        -0.0847218116       -3.2656050602        4.6499533341
 C        -1.0652298532       -4.4979014514        4.7546546466
 C        -2.2052375075       -4.3795670829        3.5874233757
 C        -3.0828800280       -5.5318684995        3.2541483267
 C        -0.0686867879       -5.6774414994        4.3234640389
 C        -1.7268449237       -4.7926674115        6.1429529325
 O         0.6545571353       -3.1518928879        3.7020477882
 O        -2.2229192034       -3.3288438185        2.9489902608
 C        -4.4870238355       -4.8957258727        2.9846555871
 C        -5.4181714360       -4.4670210229        4.0686458588
 C        -7.0219574507       -4.4582001596        3.8755591225
 C        -7.2890434490       -3.2179569464        3.0486066251
 C        -8.0032563654       -1.9684378477        3.7859407099
 O        -5.0167914656       -3.8133430898        5.0186883521
 O        -6.9491927608       -3.0630193422        1.9119755612
 C        -7.5139625358       -5.6273149820        3.0180686299
 C        -7.6204775505       -4.6119128321        5.2658014233
 H         4.7339900996        6.4832115113       -4.5251271134
 H         3.6120305310        5.1097375710       -4.8308422527
 H         4.3044149543        5.3410676751       -3.3670526195
 H         5.9358402619        0.8234035158       -4.2565997398
 H         4.3591525401        0.8349475820       -3.3298910387
 H         7.1319374601        2.4362283891       -5.5682612719
 H         8.1400523891        2.3369233874       -4.1557291811
 H         8.2580721508        3.8377211034       -5.2574364280
 H         6.4761294045        5.0835046670       -2.2242135649
 H         7.5270543318        3.8906968840       -2.0790869741
 H         7.9947412629        5.1088282404       -3.0679316990
 H         3.9357722144        2.7545458950       -5.3261217186
 H         5.0517517229        1.7878207771       -6.1129298085
 H        -0.6702830401       -0.2621820884       -7.1689984598
 H         0.1275713206       -0.5712168087       -5.6175421896
 H         3.2568759183        2.7775801193       -7.8621224131
 H         2.0395793750        1.7817469406       -8.7518446547
 H         3.7311668192        1.3466889549       -8.6409511242
 H         2.9910284003       -1.2117670144       -8.0203361961
 H         1.7986210202       -1.2580338000       -6.8065688910
 H         1.3977682740       -0.4523393981       -8.4051441203
 H        -1.7164909366        1.7099878444       -6.2604166411
 H        -1.0198152352        1.6000864232       -4.7211225246
 H        -3.1154366468        0.0321412735       -0.7097821508
 H        -4.1607975235       -0.9955793956       -1.8548629660
 H        -4.2849392743        1.5192036276       -6.1144901215
 H        -3.6768005103        2.4949447332       -4.7975143983
 H        -5.3301548554        1.7386177825       -4.6011113022
 H        -5.4894944649       -0.7425297204       -3.6847771748
 H        -5.1222933282       -1.0267197239       -5.4363781454
 H        -4.1061817100       -1.6365270250       -3.8980940434
 H        -2.3039029114       -2.1902742237       -2.6267704348
 H        -1.2153962066       -0.5826557592       -2.4624516674
 H         3.5355751339       -1.3342461799       -0.2485216577
 H         2.6109583472       -0.7574684743       -1.6600118216
 H         0.5264654422       -3.7368408772        0.4280337609
 H         1.3912396612       -4.0962053624       -1.0070397960
 H        -0.4130169974       -4.4171494964       -0.8613009884
 H         0.4388380095       -0.9537973016       -2.9937944118
 H         1.5684266565       -2.2971026300       -2.7992049972
 H        -0.0726405007       -2.7009849319       -3.1353002726
 H         3.6122839783        1.2895408689       -0.9252372069
 H         3.4307603891        0.7017680443        0.7753655142
 H         1.3691097857        1.5069225835        2.2200579833
 H         1.9468307591        2.8241787092        3.1176143847
 H         3.8997973161        3.3481793750       -0.1849714155
 H         3.6915870881        2.9317283751        1.5359859817
 H         3.4463955804        4.5944094906        0.9125999261
 H         1.6912704958        5.1073281668       -0.5866136851
 H         1.6012879404        3.9414067208       -1.8031295014
 H         0.1451148372        4.0393351154       -0.8805616801
 H        -0.3742540507        3.2662154186        3.8676813776
 H        -0.9326745416        1.7817675356        3.2273196820
 H        -1.2469963756       -1.4384051040        7.3534042235
 H        -1.9094614237       -2.1989631183        5.9870082933
 H         0.0927975163        2.1008101340        7.5749197459
 H         1.1550307403        0.8089027997        7.2919173933
 H        -0.5110714191        0.5686065075        8.0657103898
 H        -1.3466554686        3.0525275287        5.7650028446
 H        -2.5402428206        1.8594622552        5.2577754194
 H        -2.1559366240        2.0966182169        7.0152777115
 H         0.3056062535       -2.9949700722        6.8222974887
 H         1.0361618348       -1.6030417944        5.7829355710
 H        -2.8373535998       -5.8573076538        2.2196539815
 H        -3.0772515495       -6.4413424713        3.9001793831
 H        -0.4875744766       -6.6415870746        4.5049788034
 H         0.9215128021       -5.5197566298        4.8082666603
 H         0.0597900963       -5.4854623264        3.1991554980
 H        -1.1986703488       -5.5751555008        6.5708992492
 H        -1.5825841174       -3.9147823805        6.8108614312
 H        -2.7557259156       -4.9333652132        5.9214930831
 H        -4.3046040573       -4.0538448102        2.3176409206
 H        -4.8604782919       -5.7527535744        2.3728169397
 H        -9.1008627953       -2.1396056488        3.9375346828
 H        -7.7610985018       -1.5296751223        4.7740551916
 H        -8.0530064511       -1.0932231725        3.0829560558
 H        -8.6048146865       -5.5712894534        3.0313365709
 H        -7.3383019394       -6.6120631619        3.5107192802
 H        -7.0672119736       -5.7336438743        2.0313833772
 H        -7.4876611082       -5.6379790813        5.5732817849
 H        -7.2611165890       -4.0169035867        6.0009077195
 H        -8.5548285398       -4.1944231659        5.2418252893
 Na       -0.8287460011       -1.7402259492        2.3592220055
