155

 C         4.4600636005        5.5075033761       -4.1665631031
 C         5.6701068857        4.7760154686       -4.7413574045
 C         6.4977811416        3.7773424937       -3.8271756749
 C         5.4765361222        2.6977263698       -3.2291851022
 C         5.0071247284        1.5001229475       -4.1341401150
 C         7.5683205697        3.0932082588       -4.6400437458
 C         7.1497538567        4.6904347282       -2.7521216214
 O         6.1572431830        5.2449533659       -5.7809773018
 O         5.1158172466        2.8840661116       -2.0619741809
 C         4.0214753270        2.0597624951       -5.1282892315
 C         3.2272041476        0.8797668560       -5.6678036528
 C         2.4093139502        1.0333391715       -6.9855640818
 C         0.9474035444        1.5930627207       -6.4378932357
 C        -0.3295297686        0.7469665071       -6.6555996667
 O         3.0303235416       -0.1350089679       -4.9770121505
 O         0.9192619963        2.6226409323       -5.7944740738
 C         2.9457728122        2.0274624525       -8.0283240739
 C         2.1953829075       -0.3630002225       -7.7953518213
 C        -1.4331037923        1.0158019870       -5.5275141043
 C        -2.3034877651       -0.1816364272       -5.1669064927
 C        -3.7943849554       -0.0362374891       -4.7023901115
 C        -3.4781193549        0.5826549539       -3.2027489161
 C        -3.0896508017       -0.4571764857       -2.1240622569
 C        -4.5964103904        0.9585252698       -5.6340007468
 C        -4.5850879818       -1.3155473800       -4.4796981987
 O        -1.8580658068       -1.3246725699       -5.1728940843
 O        -3.4265573584        1.7890905617       -3.2129019825
 C        -1.5664186911       -0.8516108831       -2.2328734553
 C        -1.0984349531       -1.5022888052       -0.9673290693
 C         0.3684446940       -2.1094453258       -0.9570052922
 C         1.3417612361       -0.9877270287       -0.1927710444
 C         2.7108052450       -0.3985099593       -0.7536988072
 O        -1.7961697731       -1.4148831303        0.0624550964
 O         0.9414283947       -0.5865720795        0.9143679069
 C         0.5648310846       -3.2987407609        0.0450546707
 C         0.8858823166       -2.3687026439       -2.3150424385
 C         2.9671232449        1.0013354354       -0.0287496459
 C         1.7253716904        1.9329631341       -0.4280784656
 C         1.6304208535        3.4095397741        0.1352559404
 C         0.6221461664        3.2360378758        1.4577749746
 C         0.9898511593        2.2389883435        2.6128878886
 C         3.0613608926        3.8564431837        0.6476274714
 C         1.0939165729        4.4021692841       -0.8997463863
 O         0.8959477564        1.5892023987       -1.2341938846
 O        -0.4330918420        3.8229958480        1.5348434521
 C         0.1923043786        2.4573925847        3.8954112722
 C         0.4896073473        1.4345137734        5.0056240871
 C        -0.7238378720        0.9476062919        6.0215489420
 C        -1.3130183213       -0.2735230472        5.3436439406
 C        -1.3256867803       -1.6210816636        6.0791590435
 O         1.6561795973        1.0963860345        5.1359401523
 O        -1.6683985371       -0.1711165629        4.2020130600
 C        -0.0946610100        0.7680582371        7.4449928916
 C        -1.9177714584        2.0711902832        6.1499453650
 C        -0.0654536296       -2.4752080983        5.9833985982
 C        -0.2012486381       -3.4313006440        4.7754832664
 C        -1.0932484549       -4.7369759612        4.7701464865
 C        -2.1515149255       -4.6300906429        3.6382249539
 C        -3.0926617861       -5.7994466711        3.6615255923
 C        -0.1422554728       -5.9731850016        4.3780939618
 C        -1.7426451506       -4.9787466084        6.2176858317
 O         0.2952210465       -3.1820585391        3.7008987263
 O        -2.2323777614       -3.7556955262        2.8414384308
 C        -4.4826315557       -5.3934877776        3.0388052695
 C        -5.4398919043       -4.6996926809        4.0302600868
 C        -6.9803279661       -4.7681278394        3.7936238896
 C        -7.3551207340       -3.3624850655        3.1042651172
 C        -8.1072893593       -2.2986052520        3.8739584010
 O        -4.8735934475       -4.0174490292        4.9104809143
 O        -7.1182549344       -3.2306654270        1.9743550459
 C        -7.5085003997       -5.8712198582        2.8473424656
 C        -7.4766065161       -4.9972837767        5.2620197768
 H         4.7219902440        6.6245960142       -4.1514730064
 H         3.5691617522        5.4144005969       -4.7819423725
 H         3.9866666307        5.1956660667       -3.1954402525
 H         5.8922093699        1.1178777251       -4.6097018521
 H         4.5403942827        0.5852393274       -3.6458840928
 H         7.0534768119        2.6004706991       -5.4262097033
 H         8.1971550235        2.3876584605       -4.0764408154
 H         8.2609176409        3.8834521006       -4.9333491593
 H         6.4178136939        4.9657106067       -1.9493094709
 H         7.9337045129        4.2619311259       -2.1586110760
 H         7.5934654493        5.6102751644       -3.1194271483
 H         3.4274896816        2.7960201787       -4.5982346399
 H         4.5237483913        2.6118894591       -5.9059825263
 H        -0.6773563211        1.1193746957       -7.6113747870
 H        -0.1647327508       -0.3454369514       -6.6531951227
 H         2.5804553155        3.0722241041       -7.9033649664
 H         2.5800507956        1.7048779578       -9.0440195900
 H         4.0035684012        2.0939173273       -8.0973977163
 H         3.1043487018       -0.8143515109       -8.1053700798
 H         1.6667938634       -1.1021505412       -7.1003907190
 H         1.5689514541       -0.3267266963       -8.7045384662
 H        -1.9074125612        1.9157405488       -5.7766516491
 H        -0.7688521018        1.3164344896       -4.7737810829
 H        -3.3291029586        0.0033884036       -1.1189876720
 H        -3.7955749744       -1.2262862779       -2.3517623531
 H        -4.6269798233        0.4770581145       -6.6427858082
 H        -4.3180112537        2.0277330689       -5.6451937272
 H        -5.6201094071        0.8069838859       -5.3289152389
 H        -5.4611317207       -1.1228054266       -3.9553883985
 H        -4.7596500224       -1.7673888268       -5.4130510348
 H        -4.0600611786       -1.9276288970       -3.7822451783
 H        -1.5514526288       -1.7347282195       -2.9412259147
 H        -0.8588994326       -0.0851984552       -2.5931658429
 H         3.3448984794       -1.1437215666       -0.2457251097
 H         2.9177215552       -0.3341981259       -1.8135612939
 H        -0.0986097276       -3.3607999260        0.8017063079
 H         1.5961201138       -3.2583832827        0.3087085611
 H         0.4835623581       -4.2610044332       -0.4439454670
 H         0.5562374022       -1.5213357717       -2.9143218914
 H         1.9647116289       -2.5200545759       -2.2700223616
 H         0.3715179606       -3.2409505338       -2.8240442483
 H         3.9126965120        1.4031495469       -0.3828257376
 H         2.9388823539        0.8859971621        1.0614149508
 H         0.6902743812        1.3085684769        2.1953703429
 H         2.0724314455        2.1065697417        2.6959716593
 H         3.7056093159        3.9839488096       -0.1631465694
 H         3.5906821681        3.0897188043        1.2476311159
 H         3.1164947451        4.7614722502        1.2007739609
 H         0.4764927630        5.0962325771       -0.3271281279
 H         1.8409963508        4.9938906991       -1.3517064926
 H         0.6316450356        3.9486600195       -1.7904549984
 H         0.5645311810        3.4080331081        4.3259868391
 H        -0.8530729745        2.6461490762        3.6613093769
 H        -1.5903016918       -1.4814352393        7.1239518757
 H        -2.0666002161       -2.2173055850        5.5127544683
 H         0.1656845243        1.7438516187        7.7827838589
 H         0.7762824389        0.0858674552        7.5342231577
 H        -0.9174284706        0.4786194952        8.1426097892
 H        -1.5318879434        2.8242655292        6.8952755771
 H        -2.1199363806        2.4839386664        5.1285959433
 H        -2.8297984393        1.6417711238        6.4574771602
 H         0.0552759791       -3.0560552395        6.8957916734
 H         0.8672201405       -1.8395300399        5.8622219447
 H        -2.5788467660       -6.5119706244        3.0158942057
 H        -3.1888987320       -6.3686645973        4.6031641866
 H        -0.7162456697       -6.8044582925        4.1269063429
 H         0.4817255914       -6.2431498375        5.1976214092
 H         0.5152958756       -5.6172688651        3.5674038020
 H        -2.4162273534       -5.7618829905        6.1306606311
 H        -0.9061693389       -5.2701597191        6.7363015151
 H        -2.2263679919       -4.0887559071        6.5341434353
 H        -4.2413943762       -4.8129224486        2.1521118089
 H        -4.9672495319       -6.3792211592        2.7439417434
 H        -9.0798106246       -2.7694854784        4.2182451017
 H        -7.6890125153       -1.7822648523        4.7534243230
 H        -8.5650491217       -1.5039272744        3.2557914982
 H        -8.5425244133       -6.0502691204        2.9737022542
 H        -7.0830309074       -6.8453049327        3.0908640417
 H        -7.2542560217       -5.5805796902        1.8392050644
 H        -7.3038470783       -6.0428926421        5.5562811593
 H        -7.0329854563       -4.3473349633        5.9675810107
 H        -8.5427757200       -4.7831936165        5.4207812716
 Na       -0.8940595276       -1.5174108130        2.2862709987
