155

 C         4.5203094401        5.7004061321       -4.1254393376
 C         5.7401484772        5.0765789695       -4.6591877343
 C         6.4468708606        3.9418160250       -3.6897383711
 C         5.4400855425        2.7347623118       -3.1470127688
 C         4.9027494318        1.5836037759       -4.0613186373
 C         7.4892538661        3.3306671874       -4.6839414644
 C         7.0864452709        4.5892446793       -2.4099967691
 O         6.1835999612        5.3862980486       -5.7149676410
 O         5.3207181534        2.7001058995       -1.9422719977
 C         3.8248627002        2.0354701054       -5.0557496117
 C         3.1228082205        0.8228341423       -5.6754562464
 C         2.3167552469        1.0871210265       -6.9096485107
 C         0.9598810991        1.6519948840       -6.3320561688
 C        -0.3263840863        0.7670347090       -6.6265174286
 O         3.1859170984       -0.2945646128       -5.2474071688
 O         0.9386711356        2.6520461677       -5.6166802080
 C         2.9379227521        2.2447237863       -7.7972557589
 C         2.1062136059       -0.1992760737       -7.7053476247
 C        -1.5479115565        0.9976605128       -5.6625960838
 C        -2.2384091410       -0.2987334270       -5.3987008922
 C        -3.7139924645       -0.2278295896       -4.9099662964
 C        -3.4117103612        0.5780105680       -3.4689997157
 C        -2.8360434125       -0.1625444552       -2.0486235052
 C        -4.6349337957        0.7181331233       -5.7229398182
 C        -4.2927713094       -1.6367571778       -4.8822229901
 O        -1.6785954452       -1.3792097771       -5.4706618217
 O        -3.7075950343        1.7848706665       -3.4027263873
 C        -1.4165390941       -0.6957968697       -2.1744423458
 C        -0.8926307273       -1.3700356179       -0.8297689358
 C         0.4057051508       -2.0512867567       -0.7925640407
 C         1.2122808599       -0.8487028470        0.0111772712
 C         2.4999955460       -0.3047568063       -0.6869437474
 O        -1.5718903388       -1.3043062351        0.1796711890
 O         0.9392257201       -0.5858756574        1.1380036920
 C         0.5447142012       -3.3088319718        0.1478324402
 C         1.0688015480       -2.4134556902       -2.1342914535
 C         2.8841514158        1.0979339406       -0.2098292059
 C         1.7237718619        2.0279677359       -0.4520567282
 C         1.5820360612        3.3486130787        0.2465623960
 C         0.7287149269        3.2047631950        1.5442127295
 C         1.0750953136        2.2098251704        2.6646745813
 C         2.9096041166        3.9528067955        0.7745989390
 C         0.7747437041        4.4686345392       -0.6115802333
 O         0.9858618852        1.7891862718       -1.3954799740
 O        -0.3048905802        3.8412697621        1.6232956560
 C         0.1649336812        2.5395436373        3.8770010841
 C         0.5078531038        1.5017546742        4.9144720458
 C        -0.7339428534        0.9193514136        5.8710853601
 C        -1.2921827128       -0.2717358188        5.1445020928
 C        -1.5549442384       -1.5141200259        5.9382442652
 O         1.6405058797        1.2288130834        5.1517076188
 O        -1.5756322194       -0.1859397914        3.9360756608
 C        -0.0673424805        0.6336501813        7.3015218027
 C        -1.8509335283        2.0135384919        6.0340219919
 C        -0.2437380494       -2.4057606390        5.8925357291
 C        -0.3953069056       -3.3653274942        4.6576814651
 C        -1.0888116927       -4.8552917564        4.8299586072
 C        -2.1413967708       -4.8454208648        3.6511563179
 C        -3.0654429693       -5.9640200701        3.3141992034
 C         0.0556493567       -5.8751443885        4.4956764861
 C        -1.6345706775       -5.0907251824        6.2430569581
 O         0.2161271116       -3.0878776472        3.6280924030
 O        -2.2485462713       -3.8203407320        2.9607512658
 C        -4.5177552981       -5.6474796659        3.0349413393
 C        -5.3753776851       -4.8013370713        3.9596759761
 C        -7.0533486860       -4.8571751540        3.7988359016
 C        -7.3213007822       -3.4430981018        3.1956357955
 C        -8.1698414017       -2.4309410832        4.0181400426
 O        -4.8562258493       -4.2202537022        4.8461790103
 O        -7.1589793882       -3.3307059219        1.9574274689
 C        -7.4326672731       -5.9781569309        2.8681193973
 C        -7.6873146530       -5.0558009992        5.2548147249
 H         4.7749283162        6.6856508515       -3.9313565161
 H         3.6121443605        5.7847482068       -4.7310902656
 H         4.1804639574        5.1821328166       -3.2564894142
 H         5.7318142870        1.0386879490       -4.6091554354
 H         4.5185640104        0.8094241759       -3.4383383297
 H         6.8999160092        2.8947642007       -5.5259260409
 H         8.1039954443        2.6072918280       -4.2081352643
 H         8.1824329504        4.1295878359       -5.0276915488
 H         6.5521071933        5.3288030453       -1.8730248300
 H         7.4565789049        3.8465255914       -1.6960488121
 H         7.9858163364        5.1292793616       -2.6949935453
 H         3.1126941721        2.7330812201       -4.5802634221
 H         4.3897405808        2.6225072954       -5.8129214941
 H        -0.7358990324        0.8318601242       -7.6570283751
 H        -0.0493539658       -0.2479113720       -6.3592744456
 H         3.1968461554        3.1079937489       -7.2497463784
 H         2.3255240130        2.6427458037       -8.5838238368
 H         3.9059785976        1.8417122698       -8.2797102939
 H         3.0165741919       -0.4277098152       -8.3742388125
 H         1.8478202875       -1.0075802157       -7.0819308928
 H         1.2776172813       -0.1528779784       -8.3802665732
 H        -2.1243180256        1.7809944021       -6.2080957477
 H        -1.1207593696        1.5705882932       -4.7733747768
 H        -3.1653543432        0.5108101267       -1.2905896091
 H        -3.4690736086       -1.1029514306       -1.9874423408
 H        -5.3517096614        0.1439709482       -6.2619522809
 H        -4.0259578408        1.3455243033       -6.3695365222
 H        -5.2333420294        1.4109478270       -5.0921999221
 H        -5.2391016759       -1.6166270850       -4.2774553240
 H        -4.4071572430       -1.9591427600       -5.9576398494
 H        -3.5882713071       -2.3524510864       -4.3413009950
 H        -1.4551466890       -1.4010724837       -2.9956947363
 H        -0.6211266124        0.0399009042       -2.4683686171
 H         3.3624574164       -0.9515219088       -0.7177270612
 H         2.1087310440       -0.1117375540       -1.6971042390
 H        -0.3413718132       -3.2978211732        0.8972191722
 H         1.5542048961       -3.4460445598        0.5587867506
 H         0.4241623770       -4.2695097743       -0.4567411506
 H         1.2934672388       -1.5378632444       -2.7723463377
 H         1.9757904374       -2.9938759607       -1.8563084666
 H         0.3787223301       -3.0195834785       -2.6889628079
 H         3.7451053975        1.4279451039       -0.8512814041
 H         3.1872020898        1.0481695093        0.8513475475
 H         1.0178938427        1.1253265240        2.3577138861
 H         2.1027943611        2.3032198373        2.8621601177
 H         3.8371351832        3.7092368510        0.1384412385
 H         3.2600339786        3.6883580525        1.7611699895
 H         2.8320775875        5.0853255225        0.7181299652
 H         0.5275511999        5.3968223590       -0.0695804763
 H         1.3194811984        4.6151782995       -1.5772103435
 H        -0.1141053335        3.9782310166       -1.0265994486
 H         0.3211399417        3.5245394992        4.2652353083
 H        -0.8930854545        2.5306829291        3.6090435708
 H        -1.6518968689       -1.1672449230        6.9817097583
 H        -2.4026821856       -2.0264753011        5.4565960850
 H         0.1871834400        1.6240528979        7.7473463796
 H         0.8722545785        0.1891803692        7.0274106057
 H        -0.5484020397        0.0249485785        8.0325328172
 H        -1.3513633120        2.9312271105        6.1076553736
 H        -2.5649751683        1.9201805756        5.2638682241
 H        -2.4766987527        1.8474894509        6.9526949820
 H        -0.1793509023       -2.9741726450        6.8739759201
 H         0.6759521333       -1.8488301782        5.8510426525
 H        -2.5347979479       -6.5221574242        2.4822325436
 H        -3.1194662063       -6.7349599419        4.0865651037
 H        -0.4825722093       -6.8225871775        4.1891154220
 H         0.6214445608       -6.1570875114        5.4253966541
 H         0.7559035586       -5.4796147738        3.7615323700
 H        -2.5360943227       -5.6561269948        6.0211110855
 H        -0.7723983438       -5.6255955059        6.7915615730
 H        -1.9225320405       -4.0938119719        6.5379305541
 H        -4.6056920474       -5.1550338095        2.0341621659
 H        -4.9499745645       -6.6074852262        2.9922260066
 H        -8.9206011321       -2.8183401380        4.6718743415
 H        -7.5715028385       -1.6984288495        4.5778557896
 H        -8.8021327071       -1.8152638949        3.3795269741
 H        -8.4870293506       -5.9454971645        2.4104977815
 H        -7.2064229506       -6.9579608958        3.3061261346
 H        -6.7930942743       -5.7880685827        1.9841791884
 H        -7.4122064187       -6.0100020089        5.7444774760
 H        -7.3253049400       -4.2935110133        5.9712495242
 H        -8.7668780691       -5.1992926531        5.3590679831
 Na       -1.0118270188       -1.6772807153        2.3218976162
