155

 C         4.4783396029        5.8213416627       -3.7397255287
 C         5.6299408532        4.9861274046       -4.4161853697
 C         6.4017329605        3.8823861551       -3.6323002172
 C         5.5190657249        2.7853894617       -3.0358035183
 C         4.9727635443        1.6325726921       -3.9449906190
 C         7.5585637327        3.2231263393       -4.4932291883
 C         7.0898095291        4.7214816879       -2.4282846959
 O         6.0813500612        5.4266496181       -5.4619264618
 O         5.3325764381        2.8375793436       -1.8120275956
 C         3.8311023090        2.0604489403       -4.9405512923
 C         3.2610433141        0.9025915938       -5.7153405704
 C         2.3596161575        1.1914575171       -6.9265875832
 C         0.8783090658        1.6422643184       -6.2803003656
 C        -0.2619090247        0.8099098856       -6.6943920849
 O         3.5030750704       -0.2490501889       -5.3744972836
 O         0.8541388610        2.5842213901       -5.5594934385
 C         2.6825045725        2.4179818954       -7.7846627329
 C         2.2732673217        0.0422223057       -7.8907262455
 C        -1.5220895913        1.0874434990       -5.8482768880
 C        -2.1427259251       -0.2781521228       -5.5511281654
 C        -3.5245500143       -0.3383114566       -4.9160358937
 C        -3.3650655744        0.4923938207       -3.4196902629
 C        -2.8041344414       -0.1954844416       -2.1956554769
 C        -4.5841568917        0.3223318388       -5.9068032896
 C        -3.9330207346       -1.8661887987       -4.5935789595
 O        -1.5785134194       -1.3202609049       -5.8493261049
 O        -3.8359688899        1.5589481529       -3.3402539720
 C        -1.3806572482       -0.5962458335       -2.2597781028
 C        -0.9784840792       -1.1862462506       -0.9537245292
 C         0.3511004045       -1.9348694266       -0.6800352505
 C         1.3303424965       -0.8750282387        0.1486228611
 C         2.5087018693       -0.1979310885       -0.5483740732
 O        -1.7412080199       -1.2330359683        0.0021674590
 O         1.0539567649       -0.7314601769        1.3211773445
 C         0.1680570260       -3.3065329203        0.0441490305
 C         1.1617556438       -2.4231721063       -2.0478158053
 C         2.7776901591        1.2647442425       -0.0868001612
 C         1.6012892808        2.2363143186       -0.5219040897
 C         1.5159357939        3.5961021376        0.2381588659
 C         0.5980633062        3.3655880947        1.5152386136
 C         1.0827530036        2.4283331965        2.6433726057
 C         2.8955893989        4.1626677813        0.6349147450
 C         0.8400715039        4.6350617239       -0.6908572196
 O         0.8611339675        1.9734990624       -1.4865763224
 O        -0.4365432647        3.9350664588        1.6780834763
 C         0.1096991172        2.3242457301        3.7529263354
 C         0.5758800291        1.5271673791        5.0257611014
 C        -0.7070282771        0.9971631364        5.9505602281
 C        -1.2127422913       -0.2228585496        5.0541982269
 C        -1.6601444746       -1.5546251795        5.6351310474
 O         1.6879335066        1.1045651090        5.3061749815
 O        -1.3386946849       -0.1082277902        3.8425262333
 C        -0.2080266971        0.5432570435        7.3143075260
 C        -1.7956707100        2.0918649285        6.0104607699
 C        -0.5235333170       -2.4729756160        5.9334398066
 C        -0.3717010153       -3.3992307707        4.7153014011
 C        -1.0880682669       -4.8011651541        4.7030170402
 C        -2.1724725274       -4.7472618171        3.5676875727
 C        -3.0121852755       -5.9917336213        3.5157319757
 C        -0.0447717556       -5.9194972851        4.3083988048
 C        -1.8218209278       -5.1837944715        6.0883104002
 O         0.3816559324       -3.1269126421        3.7557174960
 O        -2.4670061033       -3.7851291809        2.8646761148
 C        -4.4619233436       -5.8208734336        2.9291351913
 C        -5.3424003459       -5.0398598153        3.8904970857
 C        -6.9537777334       -4.9669012917        3.8228499897
 C        -7.2828106003       -3.5112517095        3.2162948021
 C        -8.0069233124       -2.5657883262        4.0419920969
 O        -4.7806680168       -4.4973162041        4.8536348017
 O        -7.0880164469       -3.3702173100        2.0054048419
 C        -7.5220380106       -6.2145922188        2.8371221281
 C        -7.5783624282       -5.1960745932        5.2626530555
 H         4.7518393948        6.8912387378       -3.4351944243
 H         3.8002617137        6.1753574438       -4.5651626157
 H         3.8870679396        5.2626252617       -3.0087738769
 H         5.6853945766        1.2115939876       -4.5775382104
 H         4.6745778224        0.7632386233       -3.3220105385
 H         7.2434997569        2.8103573250       -5.4518506173
 H         8.0251872415        2.4652094268       -3.7942171356
 H         8.2856773915        3.9792746670       -4.6762731028
 H         6.4318031887        5.4571418591       -1.9037706331
 H         7.5367568621        4.0218470609       -1.7113233786
 H         7.9118540954        5.3956711666       -2.6883983585
 H         2.9043577828        2.4579364814       -4.4895113813
 H         4.2663689262        2.8462793028       -5.5365486877
 H        -0.4279140441        0.9545348108       -7.7471593958
 H        -0.0514629599       -0.2597860657       -6.5159359718
 H         2.3149678415        3.3871502769       -7.3083097216
 H         1.9778630195        2.3594283106       -8.6301381478
 H         3.5897978697        2.5328553761       -8.2112996194
 H         3.1427099346       -0.0121842552       -8.4042238025
 H         1.9755030049       -0.9341558777       -7.4971486922
 H         1.3960997033        0.2031336479       -8.5760502500
 H        -2.1223921001        1.7782068201       -6.4251660542
 H        -1.3323284628        1.5957422975       -4.9440626949
 H        -3.0840034187        0.5890648499       -1.4868866562
 H        -3.3488439693       -1.0467201327       -1.8078602155
 H        -5.5657549541       -0.1691765419       -5.8298633462
 H        -4.2658475586        0.3955477146       -6.9463763601
 H        -4.7090773033        1.3398541826       -5.6096704607
 H        -4.9560302468       -1.9313663071       -4.1444627518
 H        -3.8429555586       -2.4757987661       -5.4784829652
 H        -3.1816276299       -2.2457959315       -3.9494846535
 H        -1.0745097525       -1.4120068380       -2.9834437583
 H        -0.7254887558        0.2060058912       -2.5727751488
 H         3.4437012797       -0.7745592512       -0.3186212269
 H         2.2969306940       -0.2565256378       -1.6204132867
 H        -0.3445165683       -3.2790508906        0.9672629085
 H         1.2044934564       -3.6728119283        0.2040089079
 H        -0.2407638145       -4.0522241358       -0.5408100094
 H         1.2874537265       -1.6031913548       -2.7390722176
 H         2.1520087129       -2.6316784589       -1.7452261695
 H         0.6924922448       -3.3451705563       -2.4527001750
 H         3.5541451365        1.6567131857       -0.7328622540
 H         3.1447146087        1.1867823640        0.9446147184
 H         1.1953061110        1.4248817824        2.1865608300
 H         2.1607230872        2.5837499320        3.0609937734
 H         3.5546881386        4.2278293161       -0.1771911477
 H         3.3462219695        3.3966785933        1.3038117912
 H         2.9321481212        5.0846017608        1.1243242271
 H         1.3896077811        5.5618044865       -0.6163231514
 H         0.7309236184        4.2256970485       -1.7006311127
 H        -0.1606648533        4.9237657320       -0.3307993723
 H        -0.2338386549        3.3552662803        4.0795422752
 H        -0.8432701818        1.8896644278        3.4169542541
 H        -2.2628458518       -1.3541151293        6.4772677887
 H        -2.1766832239       -1.9278002850        4.7643714074
 H         0.3601599946        1.3207782862        7.7602868406
 H         0.4203028131       -0.3411054993        7.1934218970
 H        -1.0484409336        0.2720685745        7.9788604446
 H        -1.2845753597        3.0777890272        5.8861841928
 H        -2.5583204145        1.9034598645        5.2098244183
 H        -2.3991958420        2.1188940362        6.8806439789
 H        -0.6119008778       -2.9676530154        6.8389390210
 H         0.4611866759       -1.9873591704        6.1019482514
 H        -2.4982245734       -6.7088972092        2.9279711425
 H        -3.0288823611       -6.5005717951        4.4833610512
 H        -0.3669053611       -6.8601464110        4.7103193857
 H         0.8695750687       -5.6594937951        4.7934346214
 H         0.1813378375       -5.9444262327        3.2346694521
 H        -1.8504437506       -6.2712520199        6.1955547836
 H        -1.1956112134       -4.7343836833        6.7353790594
 H        -2.8296292168       -4.7649997730        5.9589427768
 H        -4.4323677053       -5.4766320130        1.9273208664
 H        -4.8873382010       -6.8743688541        2.9193851681
 H        -8.8050850643       -3.1431653099        4.5037252857
 H        -7.5041819112       -2.0260137100        4.7805508000
 H        -8.5517472437       -1.8295849425        3.5063669892
 H        -8.5601385161       -6.2591184194        2.9164628159
 H        -7.0595680603       -7.1131368538        3.3031384817
 H        -7.4062847853       -6.2057994017        1.7514947727
 H        -7.3669516447       -6.1808052383        5.6852009928
 H        -7.1751001150       -4.5614811433        6.0669590380
 H        -8.6667133774       -5.3578434823        5.3006386678
 Na       -1.1009903989       -1.7634158949        2.3308729319
