155

 C         5.2211027148        6.5125452368       -1.7958046986
 C         5.4005445705        5.4374308189       -2.8747312787
 C         6.3708433973        4.1936369056       -2.6271936462
 C         5.2039830449        3.0852782660       -2.5759621313
 C         4.8807106364        2.0688562627       -3.7799734043
 C         7.2854814872        4.1260242449       -3.8147869790
 C         7.0949596523        4.1380891520       -1.2766871927
 O         4.6731673825        5.4332547226       -3.8287155224
 O         4.5886421057        2.9108090157       -1.5197663854
 C         3.7569710184        2.5969393443       -4.7200026749
 C         3.6196884280        1.7993412979       -6.0186488629
 C         2.3042863189        1.9111312041       -6.8091044092
 C         1.2712213417        0.9657327232       -6.1861778192
 C         0.3298626375        0.2217582351       -7.0141672519
 O         4.6250767646        1.2247856191       -6.3670076433
 O         1.1495740822        1.1013973237       -4.9958649799
 C         1.7894221041        3.3485044187       -6.7101856839
 C         2.6333960491        1.6766859818       -8.2770524907
 C        -1.1379961657        0.3947499028       -6.5378704891
 C        -1.4679129863       -0.8555624283       -5.7022130927
 C        -3.0146088355       -1.2125019751       -5.2102917643
 C        -3.4032873140       -0.0199836873       -4.1151850672
 C        -2.9479406128       -0.2181090689       -2.6437522068
 C        -4.0363550506       -1.2120144482       -6.3538094821
 C        -2.9633746156       -2.6020898964       -4.5482160097
 O        -0.5510686381       -1.6097440601       -5.3394400063
 O        -4.1847684537        0.9169244949       -4.3162559513
 C        -1.4678554587       -0.3114227405       -2.4296516009
 C        -0.9934593028       -0.9855432831       -1.1598312671
 C         0.5531190970       -1.5263454090       -1.2160737409
 C         1.4225918547       -1.0036937660        0.0380366937
 C         2.5009220967        0.1015273788       -0.1987651724
 O        -1.6979803015       -1.0944873473       -0.1772861300
 O         1.1600587674       -1.3262467204        1.1507384185
 C         0.3305555252       -2.9932863868       -1.0836290673
 C         1.2740419713       -1.2085656895       -2.5983924252
 C         2.3527803968        1.2508334208        0.9168259492
 C         1.1845876091        2.1495205806        0.4128225740
 C         1.1341178814        3.6374691886        0.6305851810
 C         0.1138223947        4.0892926634        1.8296033945
 C         0.5464040305        3.9403772862        3.3073193914
 C         2.5088512390        4.2343774872        1.0833991125
 C         0.7445486125        4.2430435356       -0.6892094198
 O         0.2464017543        1.4894014365        0.0502211345
 O        -0.9277969021        4.5696028986        1.4788991160
 C        -0.5069918688        3.1738114041        4.1474039090
 C        -0.0237728722        2.0013423155        4.9900993323
 C        -1.0885182380        0.9602161276        5.5183701741
 C        -1.5657075170       -0.2078391200        4.6102166127
 C        -2.1983179893       -1.5615043861        5.2049395530
 O         1.0988422628        1.7673069513        5.3092899484
 O        -1.5812557834       -0.1844420768        3.3800861373
 C        -0.5006252706        0.4547813044        6.8819252754
 C        -2.4153903614        1.7971198375        5.8123773353
 C        -1.2348422099       -2.7085609810        5.5122748660
 C        -0.3313315623       -3.2714910744        4.3675793368
 C        -0.6319167754       -4.8376029263        3.9828973577
 C        -1.9625713563       -4.7632432172        3.2156396650
 C        -2.8250086164       -6.0150517769        2.9231543974
 C         0.3798076491       -5.3923400677        2.9117980418
 C        -0.5914659377       -5.7079654012        5.2938136644
 O         0.4499320755       -2.5873435652        3.7285175602
 O        -2.1744024293       -3.6647838254        2.5733306611
 C        -4.3375631786       -5.7713974009        2.6945276262
 C        -5.2932375001       -5.9683799661        3.9075249776
 C        -6.8272449865       -5.6465052245        3.7031348248
 C        -7.0107288598       -4.1958830688        3.1868125909
 C        -7.4029432144       -3.0883827254        4.0269981671
 O        -4.9133164035       -6.2556903477        5.0195863560
 O        -6.7988488851       -3.9673340746        1.9869869267
 C        -7.3256974303       -6.7561086151        2.7488100942
 C        -7.5444546078       -5.8547945455        5.1004924327
 H         6.0461916245        7.1826507260       -1.9420522061
 H         4.1951492975        6.8069692441       -2.0771950570
 H         5.2532975490        6.3123267637       -0.7951291068
 H         5.7486968894        1.7143877893       -4.3424392626
 H         4.5370505559        1.1472961180       -3.3676522353
 H         6.7071156755        4.3100150348       -4.7067229989
 H         7.7332666946        3.1252253296       -3.9607396906
 H         8.1094456430        4.8413993717       -3.8839317674
 H         6.3249773205        4.0455690972       -0.4885758854
 H         7.7072398833        3.2829370195       -1.2448098788
 H         7.7447199050        4.9650713681       -1.1246775873
 H         2.8121454120        2.5510837347       -4.1687123736
 H         3.9282676228        3.6962224670       -4.9078687796
 H         0.3773789229        0.4677932874       -8.0706121624
 H         0.6769840087       -0.8328048117       -7.0505635942
 H         1.5910756173        3.5213545996       -5.6402703087
 H         0.8337402978        3.3338297218       -7.2474704958
 H         2.4479958168        4.0418318573       -7.0859509706
 H         3.2973551813        2.4005132142       -8.5922188993
 H         3.0993244160        0.7054538133       -8.4209384933
 H         1.6991134541        1.6519086418       -8.9140035096
 H        -1.8631413170        0.5617457598       -7.3126159085
 H        -1.1847505866        1.2443702540       -5.7864150725
 H        -3.2835152087        0.6630670334       -2.1203994168
 H        -3.3233989750       -1.1355551948       -2.3284638156
 H        -5.0787834105       -1.3195810400       -5.9734765138
 H        -3.8029163784       -2.0242137309       -7.0597221515
 H        -3.9983227953       -0.3714343740       -7.0165834040
 H        -3.9443462549       -3.0275155905       -4.1382897743
 H        -2.3734691795       -3.2719559297       -5.2289254704
 H        -2.3302680714       -2.6150023809       -3.6697502558
 H        -0.9946946239       -0.8542376926       -3.2769458254
 H        -1.0512832830        0.7067915228       -2.4594879560
 H         3.4969562537       -0.3864072589       -0.0548815535
 H         2.5628088161        0.5157634753       -1.2422129546
 H        -0.3928376731       -3.3207027014       -1.8442178393
 H         0.0376731066       -3.1633541004       -0.0442739312
 H         1.1568551955       -3.6126968904       -1.0411843540
 H         1.2605485243       -0.2491057181       -3.0676118520
 H         2.2849983767       -1.4850665487       -2.5140641073
 H         0.8559355598       -1.9086202642       -3.3309170525
 H         3.3024900267        1.8596249454        0.9695047930
 H         2.2196377144        0.8712077730        1.9182928750
 H         1.5035097910        3.4506646714        3.3945044473
 H         0.7394349152        5.0050139658        3.7258327032
 H         3.1859978900        4.1740989255        0.2161411780
 H         2.9055190409        3.5393557175        1.9138606837
 H         2.3137657594        5.2977024677        1.3600880820
 H         1.0095601885        5.2768255053       -0.6971558691
 H         1.0499871483        3.6086110948       -1.5099099556
 H        -0.3570554576        4.4116600481       -0.6272230928
 H        -1.0831500993        3.8900832853        4.7687019569
 H        -1.2886550717        2.7510745333        3.4301871924
 H        -2.7831209892       -1.4096394384        6.1496372360
 H        -2.8591288756       -1.8638875882        4.4215056867
 H        -0.3083465620        1.2969646856        7.5010826069
 H         0.4853489944        0.0012694005        6.7044544119
 H        -1.1246471939       -0.2504883701        7.4638705872
 H        -2.1458209551        2.6059343336        6.4856894164
 H        -2.9210035174        2.1990289449        4.9537216079
 H        -3.2509744905        1.3391781329        6.1659072701
 H        -1.8080934457       -3.4886565176        5.9717084712
 H        -0.6237497105       -2.1703231465        6.2213660203
 H        -2.5678267574       -6.3168733964        1.9073433256
 H        -2.6137347015       -6.7966638598        3.6085056420
 H         0.1661907401       -6.3755124271        2.4515932716
 H         1.3685848187       -5.5960291774        3.3832032647
 H         0.6324242980       -4.6982725138        2.0682670809
 H        -0.3345944719       -6.8012309672        5.0651448462
 H         0.1893436613       -5.2448188841        5.8695761198
 H        -1.5104582799       -5.7380436761        5.8655547283
 H        -4.4813835811       -4.7586788583        2.2731210750
 H        -4.7574443796       -6.3384842964        1.8929281922
 H        -8.4282458287       -2.8068720736        3.7689071502
 H        -7.3904638890       -3.2264831528        5.0887165946
 H        -6.7259192171       -2.3183244778        3.6933920701
 H        -8.3268894525       -7.1496962950        2.9189522467
 H        -6.5884431984       -7.5702483585        2.9999556058
 H        -7.1729783452       -6.5034655802        1.6603119192
 H        -7.3883279721       -6.9166296645        5.3259596302
 H        -7.1321495830       -5.2066062262        5.9640890895
 H        -8.6831600309       -5.7948832835        4.8931775312
 Na       -0.9095411044       -1.7067966002        1.8352207699
