155

 C         5.4204817713        6.5370212711       -1.5203909626
 C         5.3454668033        5.5151682029       -2.6068745655
 C         6.1882539414        4.2223843703       -2.5144908162
 C         5.1873421419        2.9784076881       -2.4951838900
 C         5.0618256262        2.1791668796       -3.7528624438
 C         7.1011834789        4.3342912162       -3.7050967809
 C         7.1484437171        4.1247041426       -1.1956519413
 O         4.7024320058        5.8625572952       -3.5945110497
 O         4.6651286439        2.7363373484       -1.4306407197
 C         3.7987284839        2.6169174570       -4.5632864146
 C         3.6758209807        2.0405733941       -5.9245646101
 C         2.3300569131        2.0625541362       -6.7182475839
 C         1.2062673592        1.0885377354       -6.1947547568
 C         0.3277584276        0.3028724030       -7.1999718011
 O         4.6964102603        1.5394476260       -6.4074910229
 O         1.0706123334        0.8004174560       -5.0031070536
 C         1.6336616470        3.4584276997       -6.6681497019
 C         2.6851189467        1.6899201941       -8.2129512306
 C        -1.1251860864        0.0444011279       -6.8707359379
 C        -1.4763232713       -1.0868121660       -5.7391303440
 C        -2.9071094089       -1.3478986186       -5.1730141145
 C        -3.4187932594       -0.2356579919       -4.0417937725
 C        -2.9915788520       -0.2399195568       -2.6359704949
 C        -3.9476262755       -1.0855293743       -6.3448435724
 C        -2.8988935486       -2.8330204831       -4.5865797777
 O        -0.5987282625       -1.7829276652       -5.3612444277
 O        -4.1815964064        0.5998374961       -4.4036920345
 C        -1.4130661846       -0.0371510271       -2.5456365555
 C        -0.8802163154       -0.7057650554       -1.2504703588
 C         0.5723811805       -1.4246607068       -1.2343781495
 C         1.4348471864       -0.9789484166       -0.0123606079
 C         2.5626095750        0.0104122065       -0.0526877006
 O        -1.5879596365       -0.9162564469       -0.2641173337
 O         1.1670281194       -1.3454265815        1.1626358041
 C         0.4478435142       -2.9270098207       -1.1074665072
 C         1.4115483673       -1.0950114819       -2.5000652971
 C         2.3094938397        1.2473425360        0.7955896516
 C         1.1340030481        2.0545211631        0.4591820163
 C         1.0775104616        3.6228673610        0.8238867308
 C         0.0058258692        4.1537076674        1.8737145206
 C         0.2436622747        3.8117745398        3.3997670197
 C         2.4750143950        4.0774823953        1.1400448492
 C         0.5964156415        4.2895832583       -0.6076189096
 O         0.2113069847        1.5562078097       -0.1687818443
 O        -0.9831033763        4.8229488240        1.5616488812
 C        -0.8397440775        2.8795366186        3.8956091806
 C        -0.2507705406        1.9524235412        4.9344185185
 C        -1.2536137240        0.9560599173        5.6065151198
 C        -1.5477143697       -0.2193747022        4.5006745622
 C        -2.2300084092       -1.4865986293        4.9501543177
 O         0.9737595461        1.9240356733        5.0886336663
 O        -1.3061702775        0.1675593288        3.3734948666
 C        -0.7178402891        0.3300608178        6.8705885920
 C        -2.5550827322        1.5992636392        6.0139496808
 C        -1.2623270457       -2.7580649067        5.5126557838
 C        -0.2992271467       -3.3374768027        4.4591702561
 C        -0.5844685115       -4.8069257310        3.8855238030
 C        -2.0689293615       -4.7345561758        3.1127486927
 C        -2.7590863886       -6.0485337780        3.1645942168
 C         0.3818571871       -5.0680315742        2.7185450693
 C        -0.3503053114       -5.7930894922        5.0248773805
 O         0.6018205462       -2.6749217194        4.0079973587
 O        -2.3502602959       -3.8349383069        2.4150635927
 C        -4.2231472007       -5.7837940087        2.7379014515
 C        -5.2396743668       -5.9328571975        3.8997732011
 C        -6.8218550880       -5.7685862866        3.6942862122
 C        -6.9325069684       -4.3840985941        3.1107187957
 C        -7.4781215227       -3.1938719151        4.0274041189
 O        -4.6970349687       -6.1945845369        4.9614888675
 O        -6.6754811217       -4.0670502236        1.9653312722
 C        -7.2717400823       -6.7352417236        2.6231195253
 C        -7.5270693133       -5.9945223702        4.9872865213
 H         6.4608667046        6.9130022827       -1.5518872118
 H         4.5423425375        7.1361472613       -1.5222901991
 H         5.3769844739        6.0164780150       -0.4656713239
 H         5.9546524039        2.1492594542       -4.3833035412
 H         4.9620387350        1.0903397306       -3.5354498259
 H         6.6342249081        4.5058473989       -4.6743990641
 H         7.7716808326        3.5195257573       -3.7731900565
 H         7.6656524377        5.2771445623       -3.6447727592
 H         6.5937799963        4.0575590171       -0.2841946439
 H         7.7819099284        3.2155830959       -1.3763976743
 H         7.8640201717        4.9726882776       -1.1653610927
 H         2.9174149506        2.2340973971       -4.0491643048
 H         3.7015329675        3.6692403320       -4.6109661343
 H         0.3404132274        0.6352743001       -8.2626587324
 H         0.9114409970       -0.6185370206       -7.2617550439
 H         1.5860254130        3.7964180794       -5.6366207588
 H         0.6565602297        3.4867813114       -7.1386349147
 H         2.3259841994        4.0750510329       -7.2994139452
 H         3.7172299048        2.1439387716       -8.3250055988
 H         2.6731422880        0.5967911645       -8.4930429395
 H         1.9430348850        2.0624648342       -8.8771907434
 H        -1.4275221670       -0.4239609791       -7.8097734732
 H        -1.7384163882        0.9006059641       -6.7403524366
 H        -3.4862627503        0.6568324513       -2.1623884714
 H        -3.0942757597       -1.2580154046       -2.1023713245
 H        -4.9088550620       -1.3706392978       -6.0247170093
 H        -3.7292187853       -1.6234898884       -7.2443752386
 H        -3.9686494212       -0.0500205858       -6.7180793379
 H        -3.8824111179       -3.0203356820       -4.3218387218
 H        -2.5899307919       -3.5416200055       -5.3261934922
 H        -2.2121106089       -3.1117174139       -3.7518106990
 H        -0.8802878803       -0.4378412280       -3.4069820820
 H        -1.2468804077        1.0787762312       -2.4365095361
 H         3.5108971635       -0.2821918569        0.3539770268
 H         2.6957835544        0.2810638918       -1.0768835468
 H         0.3966199726       -3.4664828434       -2.0177547724
 H        -0.4647856537       -3.2755442594       -0.5336306486
 H         1.2107417875       -3.2422492947       -0.4090477733
 H         1.5549445883       -0.0103873229       -2.5191925478
 H         2.4387792348       -1.5060702587       -2.5495758542
 H         1.0473516624       -1.3761581437       -3.4600746157
 H         3.2305825836        1.7492112417        0.8483478113
 H         2.1871343959        0.8484469895        1.8309293029
 H         1.1928318572        3.2910008633        3.6104531105
 H         0.3574389029        4.6314282395        3.9880114712
 H         3.2275793750        3.7293065400        0.4412033630
 H         2.6031537758        3.6990279925        2.0903775328
 H         2.4352567476        5.1464149679        1.1256522420
 H         1.4375520568        4.6588845774       -1.2431653040
 H        -0.0050959606        3.5060982022       -1.0904073446
 H         0.1115016285        5.2281275833       -0.3942426905
 H        -1.7430845835        3.3973411980        4.2815659280
 H        -1.2475629856        2.2652313891        3.1077974639
 H        -2.9039617021       -1.1447047143        5.6897057358
 H        -2.6848774598       -1.9595327753        4.0482409845
 H        -0.2899634595        1.0945353530        7.5471237144
 H         0.0800181427       -0.3521000441        6.6388815821
 H        -1.4590790313       -0.2191828633        7.3989996549
 H        -2.4662953553        2.4412106252        6.6718046597
 H        -3.1939899297        1.8648717571        5.2047023775
 H        -3.3360368922        0.9062063415        6.4519554314
 H        -2.0313667738       -3.5352566127        5.7642216434
 H        -0.7626011737       -2.3927032490        6.4155405676
 H        -2.2391415143       -6.7144375012        2.4780956255
 H        -2.7692691384       -6.4970672450        4.1780765053
 H         0.2928988296       -6.0536167752        2.3219048644
 H         1.4319477325       -5.0762292325        3.0295263993
 H         0.3322752296       -4.3911150901        1.8760153809
 H        -0.9716501209       -6.6531045698        4.8776558645
 H         0.6874272539       -6.1325574022        5.0107109672
 H        -0.5630107670       -5.5166072330        6.0945170828
 H        -4.2964355465       -4.7465498338        2.3840966511
 H        -4.6521607213       -6.3714383755        1.8900978078
 H        -8.3088932754       -2.8017686920        3.4422605285
 H        -7.8604392231       -3.5195182338        5.0439136569
 H        -6.7766069798       -2.3780296281        4.2641807343
 H        -8.2980079320       -6.4057736527        2.2662972561
 H        -7.2151785959       -7.7849085382        2.8978268654
 H        -6.6496951180       -6.5716131925        1.7558974106
 H        -7.5231245896       -7.0600022457        5.2561034954
 H        -6.8812480224       -5.5551223362        5.6656554626
 H        -8.5294781681       -5.7187229120        4.9910575157
 Na       -0.9520419039       -1.7106140179        1.8840615066
