155

 C         5.3862777312        6.3965191249       -0.5651604621
 C         5.2556709768        5.5877912851       -1.8850241322
 C         6.1724722860        4.3442209176       -2.2258004452
 C         5.0953023545        3.1972798552       -2.4494930452
 C         4.8925724524        2.4286527315       -3.7700363583
 C         6.9127788629        4.6401925963       -3.5683382173
 C         7.2417780456        4.0522888769       -1.0420941276
 O         4.3403335522        5.8837397078       -2.6335136681
 O         4.3941217563        2.8070808789       -1.5369148174
 C         3.4335164793        2.6224638483       -4.2714816462
 C         3.4558655459        2.2431010292       -5.7058243203
 C         2.0842490182        2.2543724179       -6.5548631665
 C         1.1441772042        1.1368895156       -6.0446496433
 C         0.5974895033        0.0090375416       -6.9780717752
 O         4.4464398559        1.7060301284       -6.1778604017
 O         0.8770792728        1.1801359180       -4.8748107816
 C         1.3298514121        3.5851796213       -6.5050381810
 C         2.5564801230        2.0399956959       -8.0708536693
 C        -0.9382906649       -0.1152903411       -6.7304441789
 C        -1.2601401060       -1.1785541101       -5.6954429661
 C        -2.7822317553       -1.5785888857       -5.3179924061
 C        -3.1016953556       -0.4621436864       -4.2742114040
 C        -2.6760483162       -0.7262252693       -2.8689824323
 C        -3.7758179282       -1.5183864429       -6.5347496039
 C        -2.6704721750       -3.0905043825       -4.8854233218
 O        -0.3461838061       -1.7713952518       -5.1743159622
 O        -3.3203281053        0.6376304881       -4.6932161334
 C        -1.2341886038       -0.1791230498       -2.6068881073
 C        -0.7058292569       -0.6665463089       -1.2490861858
 C         0.8284080843       -1.0384166652       -1.2064866932
 C         1.5137670031       -0.5908552501        0.1400561520
 C         2.6774266351        0.3688284946        0.1742892351
 O        -1.5251516467       -0.8428306984       -0.3885932698
 O         1.1436617977       -1.1542974203        1.1362888804
 C         0.7130213742       -2.4823379468       -1.0633555743
 C         1.5941319362       -0.6499526924       -2.4369619579
 C         2.3250973131        1.5765611098        0.9643975853
 C         1.1794752402        2.3839673200        0.3505574137
 C         1.0217368378        3.8950612500        0.6102502565
 C        -0.1992737266        3.8615345270        1.6742176735
 C         0.1231213673        3.2817020254        3.0869466398
 C         2.3857717048        4.5143531059        1.1239747972
 C         0.4647021498        4.6194451368       -0.6216858806
 O         0.3504416915        1.7386905516       -0.3349148384
 O        -1.2048636556        4.4517758128        1.4155723828
 C        -1.1189326048        2.4698920140        3.6596899324
 C        -0.6543682645        1.7990788588        4.9732429617
 C        -1.5473896267        0.7114118018        5.5118945565
 C        -1.6506221996       -0.4809747950        4.5003627142
 C        -2.3398878277       -1.8083882907        4.9652478801
 O         0.4284434872        2.0264395837        5.5341872709
 O        -1.3689725345       -0.4358332200        3.3065309687
 C        -0.9567644056        0.2212462087        6.9108822440
 C        -2.9879730043        1.3282421743        5.6271447473
 C        -1.5550673048       -3.0114413039        5.3309888493
 C        -0.3938503123       -3.2869563275        4.3933705087
 C        -0.3870961095       -4.6819111878        3.4781120357
 C        -1.7504543168       -4.8907503208        2.9262941757
 C        -2.5849200121       -6.0672019082        3.4152844096
 C         0.5036407978       -4.4782990992        2.3075761992
 C         0.2202522207       -5.7942014775        4.3548146366
 O         0.5038629587       -2.5285962654        4.2321215036
 O        -2.2152878559       -4.0181723146        2.1013399145
 C        -4.0599383854       -5.9294784464        2.8738443440
 C        -5.1299628096       -5.8379128112        3.9729073814
 C        -6.6389641000       -5.9861808783        3.4620868321
 C        -6.8174145666       -4.3260014368        3.0611415265
 C        -7.8110240404       -3.4511697464        3.8212752987
 O        -4.7493279438       -5.7922083177        5.1215456298
 O        -6.3296065420       -4.0673913302        2.0116547278
 C        -6.7780392183       -6.8116640879        2.3010293093
 C        -7.4765375051       -6.5140543323        4.6521909262
 H         6.3602976238        6.8894654482       -0.5912429051
 H         4.6842176174        7.2062169384       -0.4862692838
 H         5.1356325687        5.7275662024        0.2872959396
 H         5.5080739461        2.7589295730       -4.5714786964
 H         5.0280500486        1.3716446058       -3.4800522498
 H         6.2158864029        4.8033966807       -4.3935663670
 H         7.5651212453        3.8225828968       -3.9843726691
 H         7.5529671546        5.4630296336       -3.4912686028
 H         6.7519810548        3.6758547115       -0.1234014480
 H         7.9437494075        3.3096121312       -1.4531549834
 H         7.7044044934        5.0431434589       -0.9109243686
 H         2.6910198548        2.1283298157       -3.6556577155
 H         3.1839468252        3.6977257349       -4.1875645473
 H         0.7738232874        0.4321751838       -7.9259555954
 H         1.2734585635       -0.8533504711       -6.8372650154
 H         1.1107635619        3.7036212953       -5.4574537678
 H         0.4178438484        3.4712981041       -7.0580517544
 H         1.9874087669        4.4702857316       -6.9290908056
 H         3.4478865958        2.7514820478       -8.2297611519
 H         2.8642656369        1.0524809612       -8.2598656520
 H         1.7439208598        2.3794123733       -8.7460002983
 H        -1.5997507702       -0.4873438789       -7.5607102652
 H        -1.3428441085        0.8675323163       -6.3336991490
 H        -3.3059150969       -0.2963409114       -2.1525008831
 H        -2.7726192632       -1.7337241358       -2.5610075928
 H        -4.7175776233       -2.0537328544       -6.3578112214
 H        -3.3959869461       -1.9879699180       -7.4270932538
 H        -4.1262077329       -0.5325636780       -6.7019729138
 H        -3.6373376315       -3.6017122423       -4.7205004941
 H        -2.3627714195       -3.6870281307       -5.7232495640
 H        -2.0464302787       -3.2175642572       -4.0451903196
 H        -0.6090520558       -0.6096854400       -3.4745780498
 H        -1.4002768743        0.8540327269       -2.4836959617
 H         3.5041119236       -0.1544144288        0.6945870247
 H         2.9487649996        0.7062555581       -0.8053118664
 H         0.2264218988       -2.8810347924       -2.0195496797
 H        -0.0313213933       -2.7724640597       -0.3402823515
 H         1.7392482469       -3.0767282063       -1.0664542323
 H         1.3644201294        0.3189451759       -2.9359278836
 H         2.6614288302       -0.5645979888       -2.1802561665
 H         1.6244723427       -1.3314803225       -3.3051773219
 H         3.1927278564        2.2458449567        0.7715877555
 H         2.2587887136        1.3360503351        2.0142972035
 H         1.0426944885        2.6169033654        3.1574322066
 H         0.3018934954        4.2367338527        3.7379407156
 H         3.2307818956        4.3507665383        0.4983660853
 H         2.5555315132        4.2725259213        2.1399912300
 H         2.1350977068        5.5270747387        1.2079110972
 H        -0.6382427496        4.6802515896       -0.5453500955
 H         0.9440378899        5.6245560002       -0.6783507044
 H         0.8099364438        4.1901019219       -1.5247936355
 H        -1.9946506609        2.9976163105        3.7729145039
 H        -1.4392811353        1.7510994481        2.9146107011
 H        -3.0270385299       -1.5814505431        5.8368544338
 H        -2.9429538172       -2.0477813523        4.0881451748
 H        -0.6545664056        1.0085185877        7.5709873178
 H        -0.0814594332       -0.3373756196        6.6321108437
 H        -1.6364351514       -0.4660479687        7.4391713353
 H        -3.0270405120        2.2737413535        6.1730169662
 H        -3.4033951388        1.6506342926        4.6482420785
 H        -3.6608026725        0.7284885163        6.2279634425
 H        -2.2420886432       -3.8383049198        5.4619606625
 H        -1.2800010705       -2.8713747185        6.4155026617
 H        -2.1490298043       -7.0915229868        3.1937810789
 H        -2.5924913946       -5.9477217420        4.5263809312
 H         0.7616154377       -5.4421282276        1.8347013503
 H         1.4185127314       -4.0431281482        2.5509710808
 H         0.1629291490       -3.9634108227        1.4881267911
 H         1.1823926497       -6.2156637350        4.0639802432
 H         0.5200161625       -5.3939806742        5.4224016571
 H        -0.3242326652       -6.6671403562        4.7414112795
 H        -4.0360856298       -5.1326630983        2.1005726819
 H        -4.3619195373       -6.8694851020        2.3963029227
 H        -7.4792574159       -2.3744474465        3.9307450341
 H        -8.7233737267       -3.6067477883        3.2190744443
 H        -8.2795649050       -3.9294277983        4.6884662354
 H        -7.7908238908       -6.9734498076        2.0418364913
 H        -6.3251132917       -7.8100673234        2.5467325076
 H        -6.1947320780       -6.4776915101        1.4398297718
 H        -7.4551490325       -7.5658450894        4.5214443751
 H        -6.8942929388       -6.2298557000        5.5364268762
 H        -8.4944723843       -6.2808123930        4.7219158483
 Na       -1.1078902449       -1.9824986712        1.5962570011
