155

 C         6.3291395863        3.6842104168        1.1328176862
 C         5.1115691069        4.4614111299        0.6349381161
 C         5.2157615076        5.1752168126       -0.7478737733
 C         4.5672479960        4.1744657925       -1.8391015546
 C         4.4744141957        4.7150935355       -3.3104001329
 C         4.4256195472        6.4807062732       -0.5934111859
 C         6.6538539898        5.5014608759       -1.2635510712
 O         4.1417756892        4.5493830457        1.3118364309
 O         4.0622783349        3.1487318331       -1.4085211195
 C         2.9651234747        4.7788398398       -3.7523322825
 C         2.6683998458        4.1288505422       -5.1202318922
 C         1.1903748654        4.0367971603       -5.5492189039
 C         0.6607414750        2.5474412361       -5.3566438122
 C         1.2347867500        1.4504276676       -6.2389670228
 O         3.5513940855        3.9365668679       -5.9455521163
 O        -0.1856712114        2.2666530805       -4.5405084064
 C         0.1252737576        4.9356620562       -4.8072434349
 C         1.1259658084        4.3056220483       -7.1007988472
 C         0.3006417842        0.2975495424       -6.5676544153
 C         0.3954212558       -0.8673062753       -5.6257376791
 C        -0.6103798765       -2.0432275152       -5.4273749868
 C        -1.6290211367       -1.5534872307       -4.2138126906
 C        -1.3626663282       -1.7387176255       -2.7211262942
 C        -1.4049875255       -2.3248139952       -6.7574884292
 C         0.0304188575       -3.3178773176       -4.8688309586
 O         1.4469587732       -0.9764995382       -4.9570264764
 O        -2.7185996939       -1.1299172720       -4.5604463103
 C        -0.2466617497       -0.6633714508       -2.2544948545
 C         0.6771764745       -1.2782685914       -1.2935455015
 C         1.8408458618       -0.4982756709       -0.6565444195
 C         1.5352785231        0.2382426638        0.7398878509
 C         2.2687766036        1.4808580189        1.0532323827
 O         0.5676200660       -2.5129581612       -1.0587787834
 O         1.0300143957       -0.4775951851        1.5954659058
 C         2.9410789291       -1.5680223923       -0.2550711708
 C         2.3138679740        0.4740344743       -1.6969069095
 C         1.5234402253        2.7636456404        1.4355309789
 C         0.1154612702        2.8272583034        0.8984220575
 C        -0.7557591714        4.1118542688        0.8974654481
 C        -2.1688836911        3.5507209473        1.2303515712
 C        -2.2592104916        2.8332960173        2.5497464714
 C        -0.2842153178        5.0768881100        2.0785896718
 C        -0.6468263707        4.7764307976       -0.4629024585
 O        -0.2803922000        1.8871382310        0.1844358866
 O        -3.1720255212        3.7366942341        0.6262371417
 C        -3.1476460828        1.6613393096        2.3872194485
 C        -3.5745330296        0.9178857620        3.5708066111
 C        -3.9399688619       -0.5965453112        3.4154573363
 C        -2.5213808488       -1.3983992254        3.4464190935
 C        -2.0854505853       -1.9608132538        4.7444552828
 O        -3.5145180024        1.3919496662        4.7087388041
 O        -1.8766504353       -1.4201743703        2.4093517051
 C        -4.9267302957       -1.1591278975        4.3989892094
 C        -4.5409414799       -0.8104854067        1.9874848788
 C        -0.5214982584       -2.1654905509        4.8350422908
 C         0.2725905854       -3.2115260090        4.0955290771
 C         0.0852543514       -4.7615653648        4.1717207320
 C        -0.8215940490       -5.2781371604        3.0033447058
 C        -1.1981671204       -6.6612438362        2.8767738220
 C         1.4454696234       -5.4035191236        3.9943191754
 C        -0.6095180288       -5.1520437726        5.5466555794
 O         1.1473641470       -2.8252251467        3.3147519010
 O        -1.3722793046       -4.4949901593        2.1705166492
 C        -2.5664570992       -6.9087815853        2.0561335197
 C        -3.7660797623       -6.4114283739        2.7368179014
 C        -5.1572355949       -6.5996883139        2.1209223726
 C        -5.4170197020       -5.2399382712        1.4347225185
 C        -6.9123818353       -4.8155503675        1.0540674631
 O        -3.6692213005       -5.7134651483        3.7703303662
 O        -4.4417622674       -4.5957356117        1.1520020319
 C        -5.2528007839       -7.8416597670        1.0599008692
 C        -6.0970924844       -6.7578127028        3.3016674461
 H         7.3164541018        3.9537207439        0.6509764552
 H         6.3174078890        3.8446512651        2.2076234270
 H         6.3137827744        2.5737385641        1.0298982770
 H         4.9696580507        5.6569279128       -3.4093599072
 H         4.9206999956        3.9426683872       -4.0040339820
 H         3.5766497091        6.2808977629        0.0306918109
 H         4.1126601870        6.8401668517       -1.5515401062
 H         5.0495796964        7.2497910895       -0.0878561895
 H         7.3992642287        4.7137052098       -1.1276091927
 H         6.5930286693        5.6194247480       -2.3640026055
 H         7.2446307232        6.2941844542       -0.9011215523
 H         2.3025159298        4.3040286663       -2.9810575904
 H         2.5451495695        5.7972007200       -3.8925832704
 H         1.5916253955        1.8527272089       -7.1322295140
 H         2.0612401475        0.9601494658       -5.7345544762
 H         0.1484859461        4.6936875912       -3.8296382456
 H        -0.8079759711        4.6900022663       -5.2347910892
 H         0.2584579027        6.0477835604       -4.8899130297
 H         0.6605086714        5.2911264545       -7.2872090242
 H         2.1554300323        4.3398187609       -7.4484181001
 H         0.4083662589        3.6259281097       -7.6505770462
 H         0.7205071779       -0.0606769008       -7.5332145564
 H        -0.6531091007        0.7436681434       -6.8568825064
 H        -2.2525760586       -1.5996878935       -2.0833931317
 H        -0.9578128616       -2.6635293676       -2.3168374450
 H        -1.1659234985       -3.3105957871       -7.0377093026
 H        -1.0856486637       -1.7445821594       -7.6204439670
 H        -2.4692682024       -2.1693077432       -6.7301707183
 H        -0.6146821305       -4.0050173563       -4.3311073331
 H         0.8096337513       -3.8268866435       -5.4217262482
 H         0.5973465417       -3.0569228826       -3.9630069498
 H         0.2456103084       -0.2756143982       -3.1184552994
 H        -0.7734475505        0.1506809633       -1.7166010342
 H         2.9017645617        1.2774439494        1.9197007423
 H         3.0368781268        1.6656432117        0.3720239828
 H         3.3591693478       -2.2780545058       -0.9233577332
 H         2.5518160189       -2.1214736451        0.5863367272
 H         3.7510537651       -0.9445863128        0.0450453456
 H         1.7175704363        1.3925336108       -1.8183691346
 H         3.3729722326        0.5178718179       -1.8048659824
 H         2.0435878100       -0.1284870537       -2.6201474661
 H         2.1605824437        3.5865116217        1.0293113721
 H         1.4604926427        2.9542934408        2.5110508263
 H        -1.3448551620        2.5552886071        2.9800715568
 H        -2.7834089261        3.4280405598        3.2914028612
 H         0.7132628326        5.3422761216        1.8456635413
 H        -0.3251626203        4.5398811529        3.0067819032
 H        -0.9007998693        5.9813016364        2.1617884578
 H         0.2870375356        5.2439159414       -0.5765557542
 H        -0.8781689620        3.9460407067       -1.1211811467
 H        -1.5065077768        5.4669935129       -0.5985316584
 H        -4.1467820528        1.9217973503        1.8742799260
 H        -2.7539293255        0.8077882987        1.6695510153
 H        -2.4792796953       -1.3317180862        5.5331405783
 H        -2.5345765697       -2.9615136163        4.9429280893
 H        -5.9252585675       -0.7658578211        4.1794428044
 H        -4.6595731732       -0.9317673323        5.4299458495
 H        -5.0064693398       -2.2162368501        4.4289273455
 H        -5.4134697476       -0.1786102701        1.9181247961
 H        -3.8286739782       -0.4849057301        1.2639056343
 H        -4.8071380343       -1.8403999015        1.9629341591
 H        -0.2566611649       -2.3363493122        5.9225491520
 H         0.0759236317       -1.2533802895        4.5057843106
 H        -0.3744712183       -7.0796607076        2.3034671967
 H        -1.0700778989       -7.0199534836        3.8727581136
 H         1.4897571909       -6.4193043491        4.3817516972
 H         2.0576625554       -4.7744600747        4.6368924307
 H         1.8109021314       -5.2917053380        2.9738999667
 H        -1.6656194684       -4.8822364838        5.3850244597
 H        -0.3358056601       -6.2045269082        5.5739016021
 H        -0.0807222614       -4.5252028191        6.3007236773
 H        -2.4396197426       -6.3914534780        1.0692255801
 H        -2.7548160546       -7.9197604099        1.7013364612
 H        -6.9445427051       -3.7087636330        1.2091748562
 H        -7.0526422926       -4.8441059324       -0.0280598772
 H        -7.5965294392       -5.4196329205        1.6482005136
 H        -6.2675914179       -8.0607985194        0.5921991649
 H        -4.9187445234       -8.6521566310        1.6660648783
 H        -4.6062850093       -7.6885665151        0.1999977204
 H        -5.6959643629       -7.4543044053        4.1630084621
 H        -6.3177287022       -5.7117741573        3.5788599409
 H        -7.1125532100       -7.1220427665        3.0173715617
 Na       -0.0400823021       -2.6740645158        1.1825930479
