155

 C         6.3470038668        3.4051072278        1.0605292897
 C         5.2581702118        4.4138667822        0.7518440445
 C         5.2022845324        5.2394425261       -0.5524771532
 C         4.3864566447        4.3856870659       -1.7653156996
 C         4.1779828156        5.0167880005       -3.2705681825
 C         4.4277035574        6.5507852145       -0.4368251573
 C         6.6120114843        5.5530432856       -1.0955544260
 O         4.3668559832        4.5578435743        1.6024912383
 O         3.9029654375        3.3218939563       -1.4872870544
 C         2.7066732159        4.8987136323       -3.6243057749
 C         2.5792126694        4.4271095067       -5.1728939151
 C         1.1570659591        4.1620193855       -5.6744684752
 C         0.7568269593        2.6261200708       -5.3915118774
 C         1.3234859796        1.4390328218       -6.0819892646
 O         3.5425189387        4.3733351878       -5.8887785479
 O        -0.0913495935        2.3814763587       -4.5406242044
 C         0.1359756108        5.0112748285       -4.8560324079
 C         0.9172189210        4.3155885689       -7.2527664122
 C         0.2209631535        0.3166257593       -6.2103425161
 C         0.5856302384       -0.9280049367       -5.4415635780
 C        -0.5188873535       -2.0588419787       -5.4393849769
 C        -1.5922663960       -1.5172228473       -4.2715750684
 C        -1.2806920607       -1.9709739060       -2.7820317221
 C        -1.3581089497       -2.2657092355       -6.7539100183
 C         0.2184167551       -3.3354550915       -5.1477687993
 O         1.6042300373       -1.0798725432       -4.7964564744
 O        -2.6200342656       -0.9808060039       -4.6628804357
 C        -0.4296389871       -0.8781885917       -2.0146565849
 C         0.6499447098       -1.4388334726       -1.0837525458
 C         1.9226337900       -0.5614736476       -0.5335424388
 C         1.5533825346        0.1535840446        0.7569882925
 C         2.2942713962        1.4708695381        1.1087145599
 O         0.5418818706       -2.5953721266       -0.7877525575
 O         0.8327743174       -0.3909904205        1.6125912233
 C         3.0858940959       -1.4274043633       -0.2218911149
 C         2.3718450663        0.3739981417       -1.6653166188
 C         1.3775887082        2.6817981791        1.5237799456
 C         0.0947090957        2.7921775959        0.7009253891
 C        -0.8086531864        4.1611767950        0.7686319032
 C        -2.2410677059        3.7127296913        1.1068124046
 C        -2.4862720975        2.9883098663        2.4987496522
 C        -0.3025246803        5.1276949471        1.9293028579
 C        -0.7334383613        5.0221636452       -0.5785508083
 O        -0.3042581517        1.8562207003        0.0483992315
 O        -3.1462493272        4.0848888935        0.3801890043
 C        -3.2944557505        1.6816838385        2.2765959004
 C        -3.5320759709        0.7115652565        3.5819528173
 C        -4.0131664382       -0.7835902536        3.2433174084
 C        -2.6417901836       -1.5226294555        3.3079360884
 C        -2.1199114713       -2.2291911118        4.6391052770
 O        -3.3106991454        1.0592251311        4.6949135267
 O        -1.8211598157       -1.3358817094        2.3683800891
 C        -4.9903140710       -1.0951799219        4.3425445731
 C        -4.5708785027       -0.9384321490        1.8560929209
 C        -0.5845092718       -2.2137270179        4.8971343244
 C         0.2206601414       -3.2241332268        4.0608432786
 C        -0.1093429078       -4.7376646495        4.2772657912
 C        -0.9030365086       -5.2222188657        3.0567797125
 C        -1.1171125389       -6.7796109764        2.8230755326
 C         1.2196029974       -5.5790958564        4.1979711344
 C        -0.7218579721       -5.0773430678        5.6781779326
 O         1.1373809468       -2.7948086199        3.3509631226
 O        -1.0245060118       -4.5792599379        2.0864852796
 C        -2.3938820809       -7.1534195531        2.1661423786
 C        -3.5879767898       -6.4328794462        2.6968679421
 C        -4.9934898152       -6.6052549409        2.0131600752
 C        -5.4427392782       -5.2974354994        1.1820957776
 C        -6.9769943704       -5.0405040729        1.0499131333
 O        -3.2958081019       -5.6878187946        3.5528609047
 O        -4.5818645428       -4.6328935668        0.6495213101
 C        -5.0558526236       -7.8956979065        1.2028147588
 C        -6.0346261384       -6.8795649924        3.1233521723
 H         7.2822132660        3.5304620193        0.6199623582
 H         6.3030114230        3.2698663751        2.1848456936
 H         6.0411046785        2.3999101450        0.7454961801
 H         4.4214364505        6.1132192941       -3.3104485139
 H         4.8363433789        4.4948228442       -3.9262082575
 H         3.4066450461        6.3201439647       -0.0644173913
 H         4.3656543242        7.0459239899       -1.4362631827
 H         4.8960159105        7.1659741274        0.2745822737
 H         7.1405885400        4.7511619042       -1.6156368337
 H         6.7341011843        6.4143881353       -1.7457126403
 H         7.4017327701        5.6999793978       -0.2978127648
 H         2.1412841287        4.1805213558       -3.0354878430
 H         2.2543397490        5.8590571092       -3.3928816371
 H         1.8023911397        1.7413741366       -7.0967603537
 H         2.1431850616        0.9135543984       -5.5363726930
 H         0.3315138574        4.6448707056       -3.7923265919
 H        -0.9241360065        4.8930578310       -5.2356102650
 H         0.3899955518        6.0285475734       -4.8871992234
 H         0.4784001665        5.2443756152       -7.5719303836
 H         1.8753912013        4.1051442806       -7.7653346107
 H         0.2481389619        3.4914686069       -7.4956081179
 H         0.0912954542        0.0820042411       -7.2848965374
 H        -0.7758398821        0.7108671156       -5.9399431859
 H        -2.2031576263       -2.1407933483       -2.2612158747
 H        -0.7751000837       -2.9140707637       -2.6259316570
 H        -1.3827428488       -3.3403094764       -7.0489451366
 H        -1.1128335624       -1.6331859203       -7.6065579813
 H        -2.3876996378       -1.9403751471       -6.5592586379
 H        -0.4584473111       -4.0312501722       -4.7373262142
 H         0.7121034671       -3.7274473383       -6.0138420194
 H         1.0219482394       -3.4616689331       -4.4282216070
 H         0.0250653024       -0.2962726073       -2.8935478954
 H        -1.1323677469       -0.2029799187       -1.5173687530
 H         3.0224941674        1.3074850510        1.9337748275
 H         3.0003853432        1.8600721450        0.3162150309
 H         3.3729043990       -1.6289714884       -1.2306719275
 H         2.8478468563       -2.3702741090        0.2123595003
 H         3.9694748341       -1.0636684021        0.3063565845
 H         1.5233282937        0.9866411581       -1.8401186225
 H         3.2911382110        0.8430181913       -1.2569235652
 H         2.6952522330       -0.0093961153       -2.5728330966
 H         2.0066295155        3.5276683766        1.3692219019
 H         0.9872207664        2.7309343732        2.5474700644
 H        -1.5368779774        2.7230711594        3.0938186934
 H        -3.1400834616        3.6987533299        3.0844388993
 H         0.7049733858        5.5646003001        1.7670783519
 H        -0.3688088108        4.6308968616        2.8961746817
 H        -1.1043780404        5.8161287315        2.0537271918
 H         0.3217290417        5.2541665983       -0.7347698140
 H        -1.2351289807        4.4687079349       -1.3319021466
 H        -1.1642549366        5.9911921007       -0.4165124829
 H        -4.2120468530        1.9638950222        1.8893282382
 H        -2.9045723546        1.1249503796        1.5600665265
 H        -2.5279662199       -1.6373397089        5.5092252140
 H        -2.5661511431       -3.2153143810        4.7943181903
 H        -5.9530904354       -0.6418429457        4.1355234310
 H        -4.6625992253       -0.7680982818        5.3125783062
 H        -5.1960294315       -2.1723170455        4.5317382027
 H        -5.1376776587       -0.0531459792        1.6322154588
 H        -3.7318549860       -1.0877019436        1.1793923070
 H        -5.2009728400       -1.8724782315        1.9132549055
 H        -0.3609464984       -2.1586617064        5.9579032994
 H        -0.2085663030       -1.3183155525        4.5067125411
 H        -0.2890548177       -7.2419383791        2.2216734188
 H        -0.9928388227       -7.3805750468        3.7718011136
 H         0.8758969129       -6.5996258215        4.3642292696
 H         1.9920422652       -5.4088387899        4.9852181582
 H         1.5925490737       -5.3805640332        3.1662322966
 H        -1.7498118937       -4.8962056719        5.6703323476
 H        -0.3947020026       -6.1028035532        5.7449677082
 H        -0.1359249341       -4.5093324717        6.3004472382
 H        -2.3527700028       -7.1275658508        1.0910449744
 H        -2.4051791140       -8.2448190984        2.3055473345
 H        -7.5538123092       -4.8006507311        1.8856171905
 H        -7.0856591605       -4.2277228643        0.3757526136
 H        -7.1966644105       -6.0070080183        0.6243330109
 H        -5.9740113261       -7.9279047825        0.7101653479
 H        -4.8770620044       -8.7555227549        1.8924979839
 H        -4.3379403633       -7.9446916023        0.3856209315
 H        -5.5133453050       -7.5416470913        3.7169414789
 H        -6.3008365964       -6.0284132805        3.6794057999
 H        -6.9448745816       -7.2444960086        2.7710474208
 Na       -0.0208741845       -2.6068772658        1.4411366734
