155

 C         6.1190746976        3.2087210796        0.7295386591
 C         5.2796686094        4.3865425481        0.6915132648
 C         5.1674313719        5.2751444495       -0.4980880629
 C         4.2088271858        4.5479874847       -1.6222182013
 C         3.9963565938        5.2345998662       -3.0307776829
 C         4.4149515082        6.6029159499       -0.0952205347
 C         6.4981916840        5.5560559955       -1.1047952214
 O         4.5124238961        4.6093645632        1.5980401164
 O         3.7578995128        3.4534830038       -1.3696396487
 C         2.6360261236        4.7514011336       -3.5414002104
 C         2.4933361590        4.6747245531       -5.0668949245
 C         1.0765773591        4.3264708738       -5.6421313968
 C         0.7516959975        2.7827266524       -5.1093310430
 C         1.2643391952        1.5811520828       -5.9635747069
 O         3.4240519403        4.7254702911       -5.8590876040
 O         0.0681093002        2.5237615803       -4.1623869592
 C        -0.0950058174        5.1984687606       -5.1598058331
 C         1.1088874938        4.5098703203       -7.2069144965
 C         0.2772860918        0.3340832844       -6.0740356217
 C         0.6871701886       -1.0180324158       -5.3415723660
 C        -0.3637416261       -2.1296388109       -5.4765938650
 C        -1.3593810674       -1.6523076339       -4.1743130596
 C        -1.1858700626       -2.0924580314       -2.6987152153
 C        -1.1571104242       -2.0096482536       -6.7598882339
 C         0.2428409931       -3.6049222794       -5.2547479325
 O         1.6521858824       -1.1036638187       -4.6367875208
 O        -2.2016162444       -0.8773305905       -4.4801474789
 C        -0.2101711385       -0.9858199557       -2.0088029022
 C         0.7375056161       -1.4772696609       -1.0039329524
 C         1.8646457675       -0.5242675260       -0.6151636105
 C         1.4774517471        0.2504096270        0.6778116644
 C         2.1791677045        1.5258784870        1.0581817707
 O         0.4037604191       -2.5239194381       -0.4206536579
 O         0.6659852747       -0.1795526820        1.4343910283
 C         3.0374111029       -1.4633031305       -0.2681610316
 C         2.2279122822        0.4234199194       -1.7989518932
 C         1.1715051636        2.4986080411        1.6577150838
 C        -0.0182434803        2.8053898087        0.6423280279
 C        -0.8341090753        4.1626498171        0.8556503149
 C        -2.3700433741        3.8093467396        1.1539275399
 C        -2.7406188728        2.9431318852        2.4686683436
 C        -0.1361545198        5.0716697803        1.8796919065
 C        -0.7816811763        4.7707311102       -0.6244997736
 O        -0.2422921946        2.0009581169       -0.2448380601
 O        -3.1746662801        4.2047476215        0.3198338343
 C        -3.4127858314        1.6363994743        2.0744660256
 C        -3.5097916478        0.7911971638        3.3287298802
 C        -3.9852869922       -0.7393534768        3.1064397071
 C        -2.5878333132       -1.5605443865        3.1728323693
 C        -2.2712210077       -2.4184389971        4.4572271019
 O        -2.9616810507        1.1160389310        4.3753470644
 O        -1.9535338775       -1.5326558158        2.1826378835
 C        -4.9020693172       -1.1951089518        4.2824027870
 C        -4.6848268033       -1.1153458687        1.7390416162
 C        -0.7678625662       -2.2803895031        4.8433037362
 C         0.1311096269       -3.3844360815        4.2434115764
 C        -0.0971226642       -4.8778730126        4.3136069720
 C        -0.6421791051       -5.4853959148        3.0062238549
 C        -1.0358312187       -6.9241040967        3.0612255925
 C         1.3047805688       -5.4630602098        4.4875572221
 C        -1.0074810194       -5.2120877904        5.5550574017
 O         1.0884932133       -3.0226676557        3.6183458170
 O        -0.9016437749       -4.7956438674        2.0000773790
 C        -2.2959544660       -7.1891180211        2.1748438258
 C        -3.4963089844       -6.3885291159        2.5748290790
 C        -4.9405007744       -6.6609361744        2.0295408153
 C        -5.4274209641       -5.4666747134        1.0878814528
 C        -6.9529975588       -5.3230049170        0.8079714634
 O        -3.3719976938       -5.4152254501        3.3858016492
 O        -4.6504004521       -4.9330514686        0.3271019334
 C        -4.8469253862       -7.7938638962        1.0346209984
 C        -5.7110800114       -6.9136776374        3.3046348928
 H         7.1496074450        3.5527205705        0.4540933568
 H         6.0247175371        2.6021552224        1.5741968690
 H         5.8523045129        2.5221121625       -0.0733338835
 H         4.0966804431        6.3072271382       -2.8878541388
 H         4.7991900590        4.8532056827       -3.7378428971
 H         3.3614564043        6.4169900794        0.0191476739
 H         4.5537937714        7.2626359433       -0.9173074368
 H         4.8439681624        7.0737128028        0.8498068986
 H         6.8444860411        4.8982055510       -1.8822610242
 H         6.5473362136        6.5227470432       -1.5689397335
 H         7.3214107790        5.6525000065       -0.4536007995
 H         2.2629906776        3.8170605666       -3.1109767751
 H         1.8743008285        5.4904165093       -3.2348677310
 H         1.6123307265        1.8503535190       -6.9132499004
 H         2.1760479560        1.2400903223       -5.4605859657
 H        -0.3263243195        4.9939768949       -4.1323280568
 H        -0.9209159803        4.9349012871       -5.7652974578
 H         0.1131599351        6.2935079536       -5.3762669095
 H         1.4907994582        5.5686691192       -7.2686851351
 H         1.7419941969        3.7666172603       -7.6646617939
 H         0.1524380799        4.3707693048       -7.6616553376
 H         0.0398420994        0.2225114166       -7.1117022231
 H        -0.6643680867        0.6552256547       -5.6826679077
 H        -2.1579321043       -2.2742382786       -2.1814884356
 H        -0.7197855739       -3.1054608163       -2.7332351722
 H        -1.9129382048       -2.7977844597       -6.6824862802
 H        -0.5234437542       -2.1397761264       -7.6649363043
 H        -1.6506593320       -1.0558852671       -6.9612552648
 H        -0.4639536549       -4.4749617574       -5.3424882628
 H         1.0630736181       -3.8086699235       -5.9645053130
 H         0.7546066460       -3.8591303759       -4.3705176491
 H         0.0751882774       -0.4300757396       -2.8272836707
 H        -0.8420520903       -0.2606373902       -1.4547466933
 H         2.9106409906        1.2438757897        1.8355469525
 H         2.7321806892        1.8918255192        0.2135641621
 H         3.4852419259       -2.2103600914       -1.0113896650
 H         2.7975703381       -1.9249185324        0.7436668951
 H         3.8499027403       -0.7822937525        0.0702897545
 H         1.4811735778        1.2092320633       -1.9594191825
 H         3.2301135830        0.7283370955       -1.7291583053
 H         2.2199112676       -0.2428546323       -2.7066890029
 H         1.7031955250        3.4514898125        1.9394773665
 H         0.7596227576        1.9885633638        2.5461985278
 H        -1.8482502531        2.6888401980        2.9702283743
 H        -3.3615490591        3.5634155293        3.0931717436
 H         0.8346250544        5.1693657094        1.4160621573
 H        -0.0209606775        4.6169133209        2.8911115808
 H        -0.6676568367        6.0273255082        2.1058878513
 H         0.2648522155        5.0214432171       -0.8948883110
 H        -1.2854559061        4.0093138492       -1.2775472387
 H        -1.2417069446        5.7690128789       -0.5830291480
 H        -4.4410218674        1.8934810701        1.6076811249
 H        -2.8633484785        1.0228281738        1.1822268714
 H        -2.8435133845       -2.2854029600        5.3271976287
 H        -2.5408002738       -3.4281856376        4.1289822751
 H        -5.9194214937       -0.7772725069        4.2731743202
 H        -4.5822528514       -1.0121238978        5.3358495979
 H        -5.0350674180       -2.2642232124        4.2104236825
 H        -5.6461641867       -0.5578163846        1.6396417659
 H        -3.9226506432       -0.9174219812        0.9458699791
 H        -4.8138671060       -2.1632352311        1.7449937742
 H        -0.6938116142       -2.3279636322        5.9472766105
 H        -0.3345379922       -1.2568632965        4.6715664228
 H        -0.1641393854       -7.4571215158        2.6841574296
 H        -1.0351376823       -7.3223347081        4.0451382013
 H         1.2316035959       -6.5423725424        4.5884085711
 H         1.5779113084       -5.2620292627        5.4823718835
 H         1.9895924300       -5.0691194460        3.8012144059
 H        -1.8049086415       -4.4489724217        5.3719658996
 H        -1.4806811680       -6.1524164285        5.3983943136
 H        -0.3411875719       -5.1380448079        6.4811726255
 H        -2.1677190129       -6.8757529029        1.0936002881
 H        -2.4250369813       -8.2827076221        2.1134185796
 H        -7.4926506354       -5.7922419409        1.6805633437
 H        -7.0957036648       -4.2343713590        0.9836082944
 H        -7.2062663511       -5.7174568918       -0.1846756049
 H        -5.8284932063       -8.0022873648        0.5379482904
 H        -4.3811629322       -8.6440065037        1.4772161052
 H        -4.1627959393       -7.5098863340        0.2132795413
 H        -5.2229925559       -7.7318390873        3.8748732829
 H        -5.6439012538       -6.0351611032        3.9983377918
 H        -6.8298618172       -6.9836242505        3.0268605092
 Na        0.0217865172       -2.3135038976        1.7277916954
