155

 C         5.9564584879        3.0475140984        0.3217698693
 C         5.1408065767        4.3259500866        0.6729413957
 C         5.0551802885        5.3406491783       -0.4802856346
 C         4.1177931459        4.7251506256       -1.4373276531
 C         3.6740326127        5.2705259557       -2.8750455151
 C         4.4767162058        6.6589788252       -0.0161233631
 C         6.3376833731        5.6553551384       -1.1986674927
 O         4.6387569873        4.4477968682        1.7700410378
 O         3.6645712198        3.6213091179       -1.2366700503
 C         2.3810901146        4.6488029888       -3.4052545591
 C         2.2940309335        4.6910701126       -4.9240897223
 C         1.0691933961        4.3547123840       -5.6813166556
 C         0.8272039677        2.9345011102       -5.0325299646
 C         1.3988662655        1.6596229112       -5.6883937360
 O         3.2760634406        5.0756726180       -5.5087098639
 O         0.2589427584        2.8857176180       -3.9339690855
 C        -0.0963481658        5.2682310122       -5.1744260398
 C         1.2842279055        4.3229274773       -7.2166381328
 C         0.3715576286        0.5275149689       -5.9257009167
 C         0.7763949306       -0.8308487469       -5.3238197494
 C        -0.2555819767       -2.0701587710       -5.4232072287
 C        -1.3054362290       -1.6965008838       -4.2312682228
 C        -0.9144186545       -2.2819037125       -2.7909050333
 C        -1.1823706395       -2.1284415564       -6.7485737459
 C         0.4303360167       -3.4207383792       -5.2865711201
 O         1.8628435188       -1.0391029308       -4.7054187215
 O        -2.1519947316       -0.8086781308       -4.3384485698
 C        -0.2529881371       -1.0876884747       -2.1429417561
 C         0.6791713767       -1.4427785112       -1.0938133620
 C         1.8379520666       -0.4623291976       -0.6353805373
 C         1.4091329509        0.3184565240        0.6124608724
 C         2.0867408260        1.6625563278        0.9080636971
 O         0.3947518666       -2.4166663607       -0.4324175181
 O         0.6138454021       -0.1235852632        1.4853444759
 C         3.0035889834       -1.4110091136       -0.1843889103
 C         2.3495517391        0.4096971917       -1.8283699239
 C         1.0778374479        2.4899697393        1.6998801741
 C        -0.0250234352        2.8589757848        0.6620501293
 C        -0.9188778941        4.1196006066        0.6966180633
 C        -2.4215484402        3.7988413885        1.0883251817
 C        -2.6858115286        2.9286525744        2.3505117082
 C        -0.4733220037        5.0975707613        1.8312821385
 C        -0.7877539247        4.7673454291       -0.7194502929
 O        -0.1277068729        2.0289651771       -0.2462603180
 O        -3.2571158280        4.2543863535        0.3992734725
 C        -3.3446407754        1.6209007524        1.9559509850
 C        -3.3742324444        0.6793665606        3.0811548036
 C        -4.0581935253       -0.6897706808        2.9576186495
 C        -2.7384943610       -1.6672940992        3.0382640469
 C        -2.4131820194       -2.6050771935        4.2006714434
 O        -2.9679291987        1.0201866030        4.1716214933
 O        -2.0625053432       -1.6795345870        1.9494942859
 C        -5.0159214221       -0.9088420208        4.2426181176
 C        -4.8917451596       -0.9548326044        1.6120149278
 C        -1.0030572428       -2.4323582649        4.8612557445
 C         0.0904580664       -3.4290774753        4.3995769603
 C        -0.0420233244       -5.0025616740        4.5974995209
 C        -0.4362111452       -5.5164570095        3.1044218954
 C        -0.9812202114       -6.9274013376        2.8696992471
 C         1.2918887737       -5.7599969576        4.9909498109
 C        -1.0284095967       -5.3461235317        5.6879266289
 O         1.1602572491       -3.0594474796        3.8683554457
 O        -0.3542265815       -4.7451624657        2.1836304011
 C        -2.2413960105       -7.0975386826        1.9968163568
 C        -3.4619188844       -6.2398735988        2.4226168641
 C        -4.8597872670       -6.7560819320        1.9155208872
 C        -5.3977186464       -5.7124131257        0.8609768345
 C        -6.8874245751       -5.4285701509        0.8088792653
 O        -3.3005913792       -5.2944436304        3.0911283738
 O        -4.6158279077       -4.9962589070        0.2918463528
 C        -4.8616175077       -8.0962002124        1.1047820555
 C        -5.6973067946       -7.0916118932        3.1955119572
 H         7.0086108308        3.1750360392        0.5168969093
 H         5.4310874135        2.2108407145        0.8790089885
 H         5.8419583313        2.6244762545       -0.6851448076
 H         3.6382311547        6.3687586948       -2.7589959066
 H         4.4173769363        5.0254387023       -3.6085703626
 H         3.5078659868        6.5342847275        0.4664576410
 H         4.3631111393        7.2880604424       -0.9281183381
 H         5.1827766686        7.1315827504        0.5690208273
 H         6.9726913306        4.8131483346       -1.4434319899
 H         6.2020547129        6.0452354576       -2.2202388809
 H         6.9388456200        6.5061121633       -0.8429757331
 H         2.2385032333        3.6152270408       -3.0358941699
 H         1.4975894266        5.1777115943       -3.0239141562
 H         2.0305238901        1.8058026456       -6.6092853740
 H         2.1527259800        1.3093572737       -5.0016577124
 H        -0.2959513737        5.0942785638       -4.1434508470
 H        -1.0323179865        4.9352393607       -5.6685675207
 H         0.1681852950        6.2762953703       -5.4378252686
 H         1.6075532196        5.2635519140       -7.4605492298
 H         1.9248121673        3.5080676967       -7.5475127601
 H         0.2995340762        3.9880076723       -7.6527079393
 H         0.2378996634        0.4195389729       -7.0484565842
 H        -0.6694221376        0.8551859172       -5.6240166677
 H        -1.7847114319       -2.5321069717       -2.2057373675
 H        -0.3418529448       -3.1864363465       -2.9119813507
 H        -2.1315699988       -2.6218937745       -6.6229659947
 H        -0.6215098889       -2.4756067901       -7.5802730544
 H        -1.3673279592       -1.0810583160       -6.9895239809
 H        -0.2738119912       -4.1953405820       -5.1185595239
 H         1.0192487783       -3.8204119681       -6.1062001247
 H         1.1264576986       -3.5018360662       -4.4006434790
 H         0.0729008603       -0.3444197370       -2.9924101069
 H        -1.0873745755       -0.4806553636       -1.7849912098
 H         3.0527428961        1.4141367966        1.4041990816
 H         2.2217419642        2.1126120848       -0.1002981844
 H         3.0319604159       -2.0654706106       -0.9788110422
 H         2.8010178781       -1.9733862495        0.6712796327
 H         3.9814871670       -1.0177227346        0.0064774295
 H         1.5281029515        1.1004702654       -2.1387633470
 H         3.2273721317        1.0528381086       -1.4191924269
 H         2.6847402413       -0.1946958039       -2.6718288050
 H         1.4625508440        3.3655310475        2.1488446298
 H         0.6853522838        1.7977878198        2.4553500676
 H        -1.6892071568        2.6932879792        2.8302527307
 H        -3.2288645594        3.5730450046        3.0745217616
 H         0.5840600595        5.3930351637        1.7363903547
 H        -0.6140111195        4.6458175361        2.7800028812
 H        -1.0515189741        6.0020612050        1.8063567630
 H         0.2049880836        5.1376768210       -0.6326628480
 H        -0.7599297034        3.9992630444       -1.4465807174
 H        -1.3953848884        5.6473056846       -0.8831201862
 H        -4.3002603860        1.8803603790        1.6342883341
 H        -2.8826580805        1.2340340649        1.1581158368
 H        -3.1342555983       -2.4089577813        5.0675856050
 H        -2.6990260307       -3.6251129146        3.8770777087
 H        -5.9636408323       -0.3894774698        4.1585348044
 H        -4.6272620785       -0.4049558163        5.0879603798
 H        -5.2956932518       -1.9200262313        4.5520026090
 H        -5.8637428806       -0.5668297078        1.7725876935
 H        -4.3981531529       -0.5819744515        0.7720819785
 H        -4.9733634870       -2.0554059971        1.4164204820
 H        -0.9377041997       -2.4628052373        5.9573026395
 H        -0.6921256750       -1.4202399980        4.6619190707
 H        -0.1679671174       -7.5290072615        2.4669647903
 H        -1.0256852540       -7.4300323404        3.8635642253
 H         1.1929909486       -6.7915037939        5.1969278854
 H         1.7605950054       -5.3788252530        5.9268703301
 H         1.9738190288       -5.5121007167        4.1423077200
 H        -2.0108265145       -5.0610998249        5.3793134845
 H        -1.0655452016       -6.4683330158        5.8406200801
 H        -0.5192178997       -4.8463448903        6.4594462458
 H        -1.9652730929       -6.8598507109        0.9741046969
 H        -2.4256659163       -8.1862934887        2.0432126878
 H        -7.4100543794       -6.2683762841        1.2338669312
 H        -7.0898385705       -4.4871822121        1.2982199261
 H        -7.0088966502       -5.3810158427       -0.2789773077
 H        -5.9367066318       -8.2721312440        0.9479034387
 H        -4.5931291407       -8.9937191700        1.7397841350
 H        -4.3236674119       -8.1886925218        0.1770831052
 H        -5.0885580333       -7.7767091954        3.8266721060
 H        -5.9206911159       -6.2727989452        3.8625579850
 H        -6.5772537815       -7.5086544683        2.8158951632
 Na        0.1334675921       -2.4934906537        1.8400824741
