155

 C         6.0425775878        3.3591184704       -0.7235034907
 C         5.4691875452        4.1702091913        0.3899797068
 C         4.7580007556        5.6302134626       -0.0839572063
 C         3.4657716755        5.1705408419       -0.9548812751
 C         2.8218719897        6.2526960321       -1.9351818522
 C         4.3172239941        6.5926618810        1.1057190167
 C         5.8668689949        6.2357736760       -0.9768318216
 O         5.4300279762        3.8220927952        1.5717250724
 O         2.9421603717        4.0899562810       -0.8046826999
 C         1.8087146328        5.6272121080       -2.9956480223
 C         2.2273794382        5.5713501017       -4.4670605992
 C         1.1748550760        4.8716606170       -5.4571968381
 C         0.6487599646        3.4951327864       -4.7735579224
 C         1.4116701945        2.1556372222       -5.0071893490
 O         3.2914733787        5.9725897055       -4.9282747583
 O        -0.2714981220        3.5213157685       -3.9878478071
 C        -0.0980964284        5.8245195219       -5.6696090331
 C         1.7904708159        4.5738056438       -6.8567754314
 C         0.5307046287        1.0598771283       -5.6289725433
 C         1.1773099473       -0.3913338492       -5.3232596203
 C         0.2313418176       -1.6653017935       -5.6034246880
 C        -0.7684457985       -1.6963535835       -4.3822395383
 C        -0.2640038347       -2.0630887657       -2.9403975131
 C        -0.6456432439       -1.5456070979       -6.8403567318
 C         1.1739753404       -2.9111908513       -5.6493517518
 O         2.3329751165       -0.4520187993       -4.9956153053
 O        -1.9724307115       -1.4802281578       -4.5712951450
 C         0.6916509625       -0.9032481054       -2.3287861397
 C         0.8495355433       -1.0112101073       -0.7595142519
 C         2.0277720592       -0.1798614475       -0.0511072894
 C         1.6179416632        0.4748551646        1.3112452611
 C         1.9345685884        1.9788294398        1.6960229646
 O         0.1602622452       -1.7822064983       -0.1348540878
 O         1.0656473853       -0.2855913049        2.1320527630
 C         3.1331030258       -1.1490663231        0.3976268319
 C         2.6757367623        0.7743624533       -1.0886894978
 C         0.6634862062        2.8665603699        1.8616320310
 C        -0.1632488746        2.9095951443        0.5768418917
 C        -1.1445941104        4.0188329733        0.1605680381
 C        -2.5759529709        3.5825334977        0.7637180001
 C        -2.6983997686        2.7368997451        2.0680352045
 C        -0.5941652879        5.3917589729        0.6074989764
 C        -1.3014967378        4.0851395577       -1.4156402881
 O        -0.1552179380        1.8944119907       -0.0883759753
 O        -3.5359762884        3.8471458302        0.1121714386
 C        -3.3823659551        1.4198446538        1.6310829924
 C        -3.7443659241        0.4597290672        2.7736041988
 C        -4.2304467462       -1.0487252132        2.4935146951
 C        -3.0950678576       -1.9164734654        3.0254958586
 C        -3.2084683876       -2.7263134495        4.2761343253
 O        -3.6453720392        0.8358377552        3.9078894900
 O        -2.1489349998       -2.0248187266        2.3205838569
 C        -5.5873703384       -1.3770973218        3.0690271654
 C        -4.2938016976       -1.3602755772        0.9453513041
 C        -1.9202869159       -2.6806992841        5.1962184276
 C        -0.5756399470       -3.4302959569        4.6928360927
 C        -0.4833700178       -4.9745732014        4.6194489365
 C        -0.7690358742       -5.5470737089        3.1847945250
 C        -0.6902496633       -7.1414602334        3.0732618211
 C         0.9202950687       -5.2491911122        4.9939933341
 C        -1.3462237076       -5.7693002040        5.6822734915
 O         0.4144243024       -2.7592673054        4.4411836303
 O        -0.7094847276       -4.8138105189        2.2539468525
 C        -1.6543272247       -7.5593773403        1.9156291879
 C        -3.0758877918       -7.1999639399        2.2420890557
 C        -4.2405702528       -7.8478721326        1.3653701943
 C        -4.7793875509       -6.7007454659        0.4191069754
 C        -5.9975673881       -6.9917214861       -0.6063719884
 O        -3.2942173198       -6.4909805113        3.2502526561
 O        -4.2738220663       -5.6044975640        0.4829375047
 C        -3.9219014446       -9.0955641889        0.4994493012
 C        -5.3051803446       -8.3866557922        2.3533815362
 H         5.8574094373        2.2858744390       -0.5029904937
 H         5.4377384169        3.4545036644       -1.5798237615
 H         7.0570014825        3.7220287721       -0.8745022886
 H         2.3031756561        7.0521520477       -1.3512286448
 H         3.7539940855        6.7238262916       -2.2849254314
 H         3.3251119942        6.3247406851        1.4162525315
 H         4.3601707788        7.6260232729        0.7954753367
 H         5.0308548007        6.3700445376        1.9376003930
 H         5.7983487714        5.8793181623       -2.0344201739
 H         5.7971004060        7.3660223239       -1.0142756391
 H         6.8713699651        6.0000915123       -0.6682894422
 H         1.4752951149        4.5997050022       -2.7310823047
 H         0.9698812122        6.2709828831       -3.0709160441
 H         2.2800348281        2.3357817745       -5.6577021310
 H         1.8086751892        1.9104006700       -4.0126269238
 H        -0.5176169353        5.9734074196       -4.6042342183
 H        -0.8174559026        5.2958616042       -6.2581432306
 H         0.1050254203        6.8303980657       -6.0676803762
 H         1.3049104175        3.6051248956       -7.2274963016
 H         1.5034362689        5.3015549139       -7.5919449295
 H         2.8554933878        4.4749121400       -6.8143454488
 H         0.6089779200        1.2219634326       -6.6863168027
 H        -0.5080636410        1.1452105247       -5.2744008098
 H        -1.1455612924       -2.0315817902       -2.2216063370
 H         0.1236323560       -3.0727966471       -2.8049143915
 H        -0.7433918545       -2.5865209996       -7.0938623348
 H        -0.2000101617       -0.9342322511       -7.6430936747
 H        -1.6396939007       -1.1598853195       -6.5373528375
 H         1.2936209766       -3.3459294463       -6.6679272900
 H         2.1669687695       -2.6721970681       -5.1861646454
 H         0.8007785021       -3.6328002948       -4.9262880791
 H         1.6099916621       -0.8141801119       -2.8707399715
 H         0.1797473773        0.0385829306       -2.6061639184
 H         2.5526099410        1.8384580099        2.5846630206
 H         2.6232452167        2.4709819927        1.1018502069
 H         3.5957766521       -1.8150564812       -0.3057272608
 H         2.8180971110       -1.7144605226        1.2651203429
 H         3.8981999752       -0.5456265120        0.7949652543
 H         1.9548103375        1.4595950332       -1.5095225989
 H         3.5505019875        1.2938488012       -0.7555274794
 H         2.9766315088        0.0871203465       -1.9366436338
 H         0.9630571001        3.8679199499        2.1890815755
 H         0.0084958862        2.6210344432        2.7334152732
 H        -1.7202908312        2.5440738766        2.4674269659
 H        -3.3439747866        3.2670713778        2.8038173170
 H         0.4158660762        5.5198801287        0.2795100503
 H        -0.6167821671        5.5485769986        1.6656092512
 H        -1.1803341745        6.2457130943        0.2578825217
 H        -0.4546956723        4.5452129482       -1.8892605205
 H        -1.5581166836        3.0984544393       -1.7672976100
 H        -2.1589425084        4.6812725905       -1.6821931118
 H        -4.2190808573        1.5919492799        0.8677938196
 H        -2.5799458138        0.9065504572        1.0225563940
 H        -4.0761956767       -2.3660384386        4.8342746406
 H        -3.2599085010       -3.7541779451        4.0143939342
 H        -6.3047572893       -0.9378639779        2.3696184112
 H        -5.8712046139       -0.9927872678        4.0568227097
 H        -5.7790027047       -2.4098136150        3.0231832469
 H        -5.1422791212       -0.8745537432        0.4349892326
 H        -3.4131987477       -1.0644771985        0.3726512466
 H        -4.3681281773       -2.4290770235        0.8431518773
 H        -2.1895356044       -3.2369572457        6.0984352440
 H        -1.7001653209       -1.6238864114        5.3855972362
 H         0.3170951112       -7.2869495710        2.7753456951
 H        -0.9167052436       -7.6538509938        4.0268084147
 H         1.1676265772       -6.3185308393        4.7213255590
 H         1.0841364080       -5.2478255962        6.0954412749
 H         1.7292129981       -4.6956087680        4.4788454300
 H        -2.3937008942       -5.6012023150        5.3186057997
 H        -1.1392154757       -6.8181641194        5.6574966729
 H        -1.2575730294       -5.3018075928        6.7249883645
 H        -1.3068688471       -7.1897182283        0.9098706709
 H        -1.7332502992       -8.6325903417        2.0515814193
 H        -5.7626127933       -8.0043679676       -0.9909272928
 H        -6.8950225095       -7.0550302290       -0.0382300982
 H        -6.0524740571       -6.2820520331       -1.3627721077
 H        -4.8724386173       -9.6070669950        0.1772390862
 H        -3.3844289509       -9.7283382266        1.1814433359
 H        -3.2594689605       -9.1121419276       -0.3224200634
 H        -4.8996497386       -9.2950441307        2.5742945176
 H        -5.4729995119       -7.8429709857        3.2713528271
 H        -6.2845451072       -8.3976818044        1.8786485203
 Na        0.0501928285       -2.4807635591        2.1105715534
