155

 C         6.3261667636        3.8980673456       -1.0692323171
 C         5.3963687283        4.2553323570        0.0528354372
 C         4.6135911755        5.7154696561       -0.0927089978
 C         3.3889672849        5.4513436344       -1.0790546687
 C         3.1626967210        6.4957070126       -2.2085145469
 C         4.0084865889        6.1621179059        1.3581333578
 C         5.7099853792        6.6423913647       -0.6979888595
 O         5.0771526798        3.4664429864        0.9411270383
 O         2.7389234250        4.4396430713       -0.9574558552
 C         2.0571544933        6.1244536019       -3.1703159617
 C         2.4053912703        5.4691949527       -4.4849283444
 C         1.3222215075        5.3313560182       -5.5474134967
 C         0.6676669335        3.9351034060       -5.2121363307
 C         1.6028124805        2.6464600656       -5.1846738717
 O         3.5060323542        5.0516634439       -4.6115745820
 O        -0.4911650613        3.8409897242       -4.8153449138
 C         0.2438584134        6.4689987886       -5.3504753910
 C         1.8808668813        5.2077866243       -6.9804112824
 C         0.7147945523        1.4105445400       -5.4843727140
 C         1.3974645012        0.1192378891       -5.1642199548
 C         0.6093298035       -1.3029598902       -5.3758326931
 C        -0.3401617445       -1.3571315374       -4.0145224189
 C         0.3652004291       -1.8166016730       -2.7930872042
 C        -0.2299610039       -1.1594782123       -6.7243102954
 C         1.5896651899       -2.3805794320       -5.5224939294
 O         2.4493213411       -0.0542048118       -4.5504514312
 O        -1.4237605117       -0.8580512607       -4.1260029009
 C         0.6996714967       -0.6983263242       -1.8856553190
 C         1.3147252766       -1.2607482278       -0.6269647227
 C         2.4663498969       -0.3622475943        0.0566433477
 C         1.6877464343        0.4098365580        1.2057610592
 C         1.7576954285        1.9208362969        1.3147628499
 O         0.8173933346       -2.2187548181       -0.0930532237
 O         1.0194146836       -0.2142393053        1.9620007594
 C         3.4089754992       -1.2593707718        0.9199296404
 C         3.1942060402        0.5194932722       -0.9159597707
 C         0.5016866829        2.4400280522        1.9557374533
 C        -0.5941474317        2.4747488292        0.8567585860
 C        -1.4681001330        3.7506919841        0.4199642197
 C        -2.9396638489        3.4794080082        0.8929622577
 C        -3.3687177012        2.4278041726        2.0035280742
 C        -0.9070316606        5.0879168088        1.1013380823
 C        -1.5111859891        3.8460508194       -1.1198508094
 O        -0.6894447871        1.4705357263        0.1368853439
 O        -3.8096405616        4.1125709982        0.3510037781
 C        -3.5307794092        0.9337385496        1.5395557787
 C        -4.4570239629        0.1557544072        2.5472566227
 C        -4.6534339766       -1.4650004577        2.4666160992
 C        -3.4762704162       -2.0745134536        3.1347319360
 C        -3.5222626805       -2.9495222741        4.2693343328
 O        -4.9476289915        0.7464029303        3.4311834805
 O        -2.3859569874       -1.7035142321        2.6649711389
 C        -6.0038973091       -1.8936330205        2.9882558415
 C        -4.6173180792       -1.7427648526        0.9276882750
 C        -2.2958919231       -2.8242503882        5.1926555126
 C        -0.9491658006       -3.2469756373        4.6550381204
 C        -0.5577040437       -4.8377434695        4.6251980623
 C        -0.5032571519       -5.3942186488        3.1135943554
 C        -0.6909263955       -6.8907483967        2.8525294829
 C         0.8813738676       -4.8254681416        5.1507170661
 C        -1.3612415391       -5.7513636040        5.5751677910
 O        -0.2137796625       -2.3726555082        4.2500482015
 O        -0.1461767437       -4.7056573140        2.2197311035
 C        -1.6996112996       -7.0607467307        1.7730440594
 C        -3.0734443787       -7.5652590770        2.2675183623
 C        -4.0450044948       -8.2638580635        1.1641662322
 C        -4.4206863408       -7.1643409954        0.2257308018
 C        -5.1192706650       -7.3169476170       -1.1354393241
 O        -3.3147317045       -7.7460517709        3.4390406620
 O        -4.1868302192       -5.9856761752        0.5750451378
 C        -3.3085412654       -9.3587736697        0.3712562739
 C        -5.2097474350       -8.8789237559        1.9994659324
 H         6.7690502424        2.9493283404       -0.8548811953
 H         5.7995533146        4.0437629263       -2.0272958737
 H         7.0985170195        4.6180706990       -0.9972970175
 H         2.8889248915        7.4244500076       -1.6449460430
 H         4.1410805610        6.7400969461       -2.6649828778
 H         3.8988221007        5.1722672116        1.8330499219
 H         2.9716387113        6.5630729275        1.2184387816
 H         4.6056079209        6.8551631621        1.8678302013
 H         5.6311463360        6.5769697312       -1.7586696051
 H         5.5602400169        7.6660671959       -0.3678467561
 H         6.6604971249        6.3706990212       -0.2319511400
 H         1.5085080164        5.2539286686       -2.7977365035
 H         1.2839288235        6.9314010483       -3.3997454079
 H         2.5320010699        2.7020119880       -5.7259319162
 H         1.8365677773        2.5516711157       -4.1797773511
 H        -0.3356880836        6.4291325530       -4.4959969079
 H        -0.4615600426        6.4876958349       -6.1648552557
 H         0.8325664822        7.3826731082       -5.5057368597
 H         2.7919999831        4.7239152761       -7.0013153823
 H         1.2477875783        4.5655468168       -7.5829723316
 H         2.1696557461        6.1683629068       -7.4002996002
 H         0.4932955592        1.3598518508       -6.5721989424
 H        -0.1978958317        1.3800149079       -4.9081765160
 H        -0.3141230803       -2.4763293364       -2.2663009438
 H         1.2085342479       -2.5315665408       -2.9401304564
 H        -0.4818349640       -2.1677074984       -7.1306119562
 H         0.3392439735       -0.5337078395       -7.4231284431
 H        -1.2127210110       -0.6885301352       -6.4587556190
 H         1.0832952286       -3.3055622518       -5.2842096634
 H         2.0426937132       -2.3861882866       -6.4802867989
 H         2.3178829641       -2.2847329418       -4.6561005450
 H         1.4453495905       -0.1598106514       -2.6043192440
 H        -0.1015203915        0.0420215646       -1.6705449284
 H         2.6178315545        2.1153871449        1.9956310517
 H         1.9655334778        2.4489710217        0.3578197310
 H         3.8204514448       -2.0437400023        0.2973653146
 H         2.8579806427       -1.7471404221        1.7151103059
 H         4.1960084193       -0.7223829172        1.4430581415
 H         2.4646915736        1.1682503073       -1.4425644058
 H         3.8496586501        1.1239095595       -0.2423165422
 H         3.7690832350       -0.0093165635       -1.6321727268
 H         0.7681947693        3.3441252631        2.5056520641
 H         0.1028841592        1.6921842895        2.6705804983
 H        -2.6833013025        2.4640315370        2.8691958967
 H        -4.3036702036        2.8239496104        2.3671737067
 H         0.1193765402        5.4699216229        0.8941152805
 H        -0.9860911044        4.9109066544        2.1595294137
 H        -1.5557892867        5.9159796746        0.8763460325
 H        -0.7366486286        4.4235520902       -1.5745231970
 H        -1.3996123462        2.8431973958       -1.5756676970
 H        -2.4834785777        4.3563183681       -1.3876718480
 H        -3.8682346369        0.8864351292        0.5728692620
 H        -2.6281879666        0.4092824271        1.4765336460
 H        -4.4614871653       -3.0448203751        4.8564643179
 H        -3.5871639905       -3.9775528780        3.7868871201
 H        -6.7870838530       -1.4082403417        2.4509158226
 H        -6.0189437833       -1.5703425834        3.9990170969
 H        -6.1192735907       -2.9917656199        3.0022560775
 H        -5.5234042782       -1.4937899392        0.4228496344
 H        -3.7268220173       -1.3478642964        0.5108823039
 H        -4.5804821756       -2.8385625393        0.6404202895
 H        -2.6705137679       -3.1315033039        6.2032191590
 H        -2.2754953342       -1.7235085401        5.3466974763
 H         0.2429471477       -7.3640542858        2.6112381740
 H        -0.9915915643       -7.3820498951        3.7324354045
 H         1.5921387603       -5.5846370996        4.8702872034
 H         0.9532796339       -4.8683504786        6.2813570628
 H         1.3677805921       -3.8338271121        4.8883248111
 H        -2.3373997724       -6.0321084177        4.9988235567
 H        -0.7784854655       -6.7207691700        5.7029169584
 H        -1.5976227561       -5.3834021078        6.5624116049
 H        -1.7425379347       -6.1813234212        1.1422156151
 H        -1.3626252364       -7.7901981479        0.9345231231
 H        -5.1050089749       -8.3974380518       -1.3661966629
 H        -6.1629853709       -7.0636356989       -1.0064101799
 H        -4.7027477961       -6.6696797403       -1.8800734956
 H        -3.9354567714      -10.1136169445       -0.0349505894
 H        -2.6912968574       -9.9827034994        1.0706662683
 H        -2.6624753394       -8.9473335851       -0.3803511310
 H        -4.8540758394       -9.8235411829        2.5559913828
 H        -5.3749425457       -8.1535872843        2.7886399337
 H        -6.0669802352       -9.2544229193        1.3855924125
 Na        0.0288889044       -2.4158332140        1.9798112350
