155

 C         6.4541778852        3.8671942336       -1.1315845699
 C         5.3080759624        4.2180587468       -0.0327735655
 C         4.6079586003        5.6772967492       -0.0352873269
 C         3.4535721713        5.5227439536       -1.1290154460
 C         3.4362122186        6.5610019533       -2.3006070349
 C         4.0214050060        5.8449535092        1.3393044456
 C         5.6009628292        6.9576322404       -0.3454232102
 O         4.9202948671        3.3603691681        0.7406304132
 O         2.6427411112        4.5837982096       -1.0854471146
 C         2.1838028791        6.3773564833       -3.1529333798
 C         2.3754452135        5.5339015680       -4.4024793498
 C         1.3168493027        5.4002912053       -5.5512702451
 C         0.6056345617        3.9882877064       -5.3659820319
 C         1.5168831226        2.8147441544       -5.2251715801
 O         3.4625154129        4.9931016579       -4.4909792119
 O        -0.5706707325        3.9820135052       -5.1218456935
 C         0.2196502372        6.5025337662       -5.5681993294
 C         2.0733454507        5.5086017273       -6.8831329188
 C         0.7627197446        1.5366864041       -5.5820654175
 C         1.5200651351        0.1989375964       -5.0868408677
 C         0.7118795979       -1.1482933004       -5.3746049028
 C        -0.1801199040       -1.3009193353       -4.1525020922
 C         0.3219522977       -2.0886197009       -2.8119505395
 C        -0.1936232784       -0.9823919892       -6.6702272914
 C         1.6342836688       -2.3695029513       -5.5348728622
 O         2.5774133537        0.2870480083       -4.5044511780
 O        -1.2631741273       -0.7464102723       -4.0564320636
 C         1.0372809123       -0.8919234629       -1.9738979430
 C         1.3914378934       -1.3197652755       -0.5471998736
 C         2.4562908742       -0.4180291160        0.2457351700
 C         1.6292966109        0.3776740089        1.3064568785
 C         1.7442467452        1.9320438225        1.2218407325
 O         1.0455486598       -2.3737154163       -0.0038884495
 O         0.7996522689       -0.1840014611        2.0236859082
 C         3.4623570888       -1.3087764772        0.9119697097
 C         3.3714013739        0.5641042049       -0.6693747324
 C         0.5224990393        2.6425461056        1.8937735589
 C        -0.7375357272        2.3948468861        1.0069485076
 C        -1.6221515677        3.7080050799        0.5814383761
 C        -3.0438215623        3.3182991071        0.9606418264
 C        -3.3434215475        2.3627151185        2.0941819523
 C        -1.0997922825        4.9703744802        1.1934076873
 C        -1.4269281441        3.8421451364       -0.9647906562
 O        -0.9971667033        1.3647022361        0.4631548837
 O        -4.0013075359        3.7932058771        0.3495150347
 C        -3.8203552024        1.0060143642        1.5619248939
 C        -4.6381510998        0.0901089433        2.4869719066
 C        -4.6258501210       -1.5627059959        2.2720910475
 C        -3.4437910850       -2.0333766206        2.9854669096
 C        -3.4807632960       -3.0827319743        4.0997449780
 O        -5.3943557945        0.5803727618        3.2940609107
 O        -2.3490847084       -1.6990368362        2.6044478272
 C        -5.9735870219       -1.9555285133        2.8892868971
 C        -4.6569946449       -1.9398212601        0.7913253303
 C        -2.3859979021       -2.9405599696        5.2370081103
 C        -0.9028607260       -3.3064722710        4.8553896045
 C        -0.5013885889       -4.7819271882        4.7304573858
 C        -0.4696540116       -5.2137830864        3.1497662439
 C        -0.6292235250       -6.7276402911        2.8707973478
 C         0.9681586303       -4.8728514978        5.2066019000
 C        -1.5251989296       -5.5774119388        5.5661309579
 O        -0.2055996260       -2.4205642499        4.4174349717
 O         0.0528601886       -4.4432852040        2.3494153351
 C        -1.6724453392       -7.0415064331        1.7963995224
 C        -2.9163868798       -7.8671793435        2.2856880408
 C        -3.9163526448       -8.3259418198        1.0543326916
 C        -4.3445105156       -7.1588514685        0.1379077915
 C        -4.9954278816       -7.6098626806       -1.1387655163
 O        -3.1092775585       -8.0106335129        3.4493499033
 O        -4.1946770963       -6.0520916017        0.5702032848
 C        -3.2806488582       -9.5761438103        0.2744992817
 C        -5.2703219728       -8.9085779900        1.7015311453
 H         6.6100932169        2.8160360741       -1.0102132791
 H         5.9611384403        4.1524992711       -2.0362817560
 H         7.4486217383        4.3510793595       -1.1010985358
 H         3.3390184583        7.5722215984       -1.9505775509
 H         4.4059736043        6.4620744186       -2.7518204159
 H         3.5959630862        4.8898657839        1.6447326669
 H         3.3294784948        6.6582474768        1.3273897407
 H         4.9159111240        6.1342883978        1.9927564073
 H         6.1753662889        6.7896828027       -1.2620996892
 H         4.9792666394        7.8399735635       -0.4036937778
 H         6.2049893445        6.9724828521        0.5646146832
 H         1.3972877227        5.7954565510       -2.6070125609
 H         1.7534528911        7.2877202658       -3.4343932671
 H         2.3787210774        2.9730117136       -5.8957061416
 H         1.8653272723        2.8250643938       -4.1147163761
 H        -0.3227952785        6.5528479077       -4.6073238874
 H        -0.5292729885        6.2425782973       -6.3662731220
 H         0.6103806268        7.4396411254       -5.9123862268
 H         2.0507306048        4.6408931116       -7.5928545703
 H         1.6054621032        6.2652054655       -7.5654387944
 H         3.1273170919        5.7091055140       -6.7159002090
 H         0.5645938843        1.6103054920       -6.6443455769
 H        -0.2379001875        1.5277591083       -5.0699522910
 H        -0.2984363626       -2.5906886598       -2.0428041185
 H         0.9808376350       -2.8713775330       -3.1186520276
 H        -0.5065550570       -2.0053182468       -6.8883836183
 H         0.4434775843       -0.6301378812       -7.5124353611
 H        -1.0924496526       -0.4304391583       -6.5025463568
 H         1.1691164839       -3.2249884912       -5.0574407544
 H         1.8061911945       -2.4991589642       -6.6199317336
 H         2.5066475066       -2.1769429260       -5.0200123624
 H         1.7969770770       -0.5230293658       -2.5568892066
 H         0.3039763928       -0.1089794119       -1.8711809131
 H         2.7282087740        2.2283182701        1.5984374613
 H         1.6739342268        2.1810661051        0.1489079050
 H         4.0939103286       -1.8676411835        0.1638643605
 H         3.0324563176       -2.0826570352        1.6132325355
 H         4.1430104638       -0.6614336331        1.5598928961
 H         2.8251743931        1.2820559180       -1.2866087057
 H         4.1597378645        1.0202989299       -0.0981242442
 H         3.9195624510       -0.2109383082       -1.2905471862
 H         0.7534640709        3.7231552411        1.8304473710
 H         0.3684800696        2.3066417011        2.9207946913
 H        -2.4814656860        2.1023398337        2.6981784829
 H        -4.0101357565        2.8738026491        2.8177970749
 H        -0.1582199792        5.1842476106        0.6730467920
 H        -0.8780491735        5.0948534838        2.3050826809
 H        -1.7378781805        5.8336838981        0.8544321303
 H        -0.3175599749        3.7592039001       -1.2688686239
 H        -1.8438783660        3.0047177316       -1.5149810449
 H        -1.8050176878        4.7894628906       -1.3020150287
 H        -4.5280361615        0.8439950229        0.6371023414
 H        -2.8807523568        0.3566828176        1.2715757875
 H        -4.4732932297       -3.1101174721        4.4947578118
 H        -3.4863062323       -4.0997530153        3.7443248728
 H        -6.7180673165       -1.2999732354        2.4059108556
 H        -5.9789510797       -1.7839317782        3.9946928400
 H        -6.2169202170       -2.9831899427        2.6445810084
 H        -5.3160569487       -1.2014369876        0.2873411382
 H        -3.6618874571       -1.9480645096        0.2851414213
 H        -5.1806839072       -2.7973418239        0.5353870261
 H        -2.7041931077       -3.5330616391        6.0676367295
 H        -2.4722392302       -1.9454466975        5.6556023099
 H         0.3871470972       -7.1559400101        2.6977904533
 H        -0.9388617505       -7.2703301381        3.8129163221
 H         1.3795197930       -5.8668865817        4.9845171223
 H         1.1928080907       -4.6699610821        6.2216856660
 H         1.5724325531       -4.1663501256        4.7117212041
 H        -2.4948288284       -5.6183972892        5.1930268224
 H        -1.2137022538       -6.5666669871        5.8832509165
 H        -1.5484184442       -5.0507919644        6.5475247002
 H        -2.0436872139       -6.1452874793        1.2558255040
 H        -1.3006264967       -7.4449729596        0.9173460774
 H        -4.9923267126       -8.6542313862       -1.3200117933
 H        -6.0600825558       -7.2582365101       -1.0993829019
 H        -4.5157520571       -6.9781976817       -1.9494809683
 H        -3.9611134201      -10.0384384715       -0.4638298782
 H        -3.0769845905      -10.3714445324        0.9174413740
 H        -2.4259496054       -9.2382753094       -0.3656287166
 H        -5.1139677259       -9.9226789148        2.0260478962
 H        -5.5555264138       -8.2918697696        2.5717579561
 H        -5.9804566411       -9.1074654490        0.9283806708
 Na       -0.2445767771       -2.1183013848        2.0127085653
