155

 C         6.4410856145        4.0658527864       -1.1688290939
 C         5.2942386340        4.1470546316       -0.1666347806
 C         4.5801172065        5.6595587399       -0.0600368215
 C         3.3947079643        5.6501639320       -1.1732452845
 C         3.5307055126        6.6554687648       -2.3109058400
 C         3.7692229855        5.6341876733        1.2781351428
 C         5.6694013058        6.7486194051       -0.0250286236
 O         4.8129804295        3.2114828884        0.4464133700
 O         2.5682072026        4.8021480233       -1.0199947855
 C         2.2732256790        6.6802351610       -3.2111520281
 C         2.4213941801        5.7133696006       -4.4022128861
 C         1.3136416628        5.5673249331       -5.5402090498
 C         0.7002689018        4.1709300806       -5.4002136972
 C         1.5562884718        2.8543779414       -5.2454541982
 O         3.3579365475        4.9385867403       -4.4128901593
 O        -0.5048776985        4.0939094104       -5.5368845466
 C         0.3441564696        6.6561277437       -5.5363354011
 C         2.1441394142        5.5943250086       -6.8221829597
 C         0.8178361311        1.5847608445       -5.6243317598
 C         1.4831577030        0.3616192447       -5.1647229323
 C         0.7691405615       -1.0221582306       -5.4191737793
 C        -0.1168407319       -1.2526427178       -4.0943848857
 C         0.4560897991       -1.8736472470       -2.8007418112
 C        -0.2913263596       -1.1216253597       -6.5321485433
 C         1.9948664563       -2.0937050916       -5.6798636927
 O         2.5482541930        0.3706955138       -4.5482504620
 O        -1.1882182765       -0.6789317144       -4.0764750683
 C         1.4562459600       -1.0458541535       -1.9930401066
 C         1.6364365923       -1.4335562614       -0.5678156634
 C         2.5240717676       -0.5421431996        0.3119766798
 C         1.6702008854        0.4487220365        1.2629775535
 C         1.9060956216        1.9899899014        1.3344072647
 O         1.0545610008       -2.3917422134       -0.0601749798
 O         0.9532855641       -0.0411778037        2.1257437624
 C         3.3424521158       -1.4414297481        1.3392903032
 C         3.4183391388        0.3515639864       -0.6402991998
 C         0.6227094531        2.7833897810        1.7870059308
 C        -0.7577668669        2.4721936945        1.0780723784
 C        -1.7942638295        3.5621538656        0.6422622481
 C        -3.2370143273        3.0802606982        0.9491880607
 C        -3.5398317951        2.1939731428        2.0625153477
 C        -1.6447720128        4.8360639898        1.4756006900
 C        -1.6494736283        3.7939235410       -0.8717852548
 O        -1.0691172600        1.2979106276        0.8726443775
 O        -4.1380899871        3.5935839758        0.3737741836
 C        -4.0621804206        0.8942849616        1.4726672036
 C        -4.9276285133        0.0673953936        2.4119734913
 C        -4.7907493521       -1.5928919905        2.1454152472
 C        -3.4997368584       -2.0083171733        2.8209406623
 C        -3.4313344862       -2.9959254760        3.9114703934
 O        -5.6239917793        0.6032631133        3.2592689940
 O        -2.4648991288       -1.6091577257        2.2900011835
 C        -6.0265365794       -2.2156072327        2.8224980907
 C        -4.7032377752       -1.8951253909        0.6564578858
 C        -2.4398349745       -2.7987263196        5.0404580288
 C        -0.9597344433       -3.2287343785        4.9433396046
 C        -0.5194912456       -4.8177377028        4.7765583165
 C        -0.5219567998       -5.1911918225        3.2682608288
 C        -0.6678240222       -6.7963683747        2.8932284369
 C         0.8924187124       -4.8772779199        5.4277543979
 C        -1.3653157594       -5.8058319918        5.5962372437
 O        -0.1041489544       -2.3996375447        4.7128222855
 O        -0.2132330323       -4.4043577801        2.4250959209
 C        -1.6477168526       -7.0050822623        1.7066785006
 C        -2.8141557075       -7.9728723827        2.1125536741
 C        -3.8333983829       -8.4704112499        0.9706130381
 C        -4.2915057160       -7.2503588612        0.0556712757
 C        -5.0047567973       -7.5307064597       -1.3014079417
 O        -2.9043804211       -8.3599518804        3.3036790164
 O        -4.1319519806       -6.1138264265        0.4970180406
 C        -2.9484049753       -9.6264073245        0.4394752922
 C        -5.1012084460       -8.9230940728        1.6906872241
 H         6.8264592580        3.0178824770       -1.3172767672
 H         6.2141073570        4.7275633936       -2.0231051607
 H         7.2584271171        4.5742103920       -0.6583258110
 H         3.6182880224        7.7100623150       -1.9297405545
 H         4.5066371653        6.4095215356       -2.8092572411
 H         2.7589349706        5.2961647751        1.0983067757
 H         3.8327964121        6.6450443593        1.7111091820
 H         4.2128158408        4.9299504161        1.9215340998
 H         6.5444814538        6.3842544222       -0.5981877916
 H         5.1882482261        7.6756799911       -0.4456497993
 H         6.0004290522        6.8176224266        1.0030872654
 H         1.3623679684        6.4694526146       -2.6650457252
 H         2.1829336992        7.7184041860       -3.6966596438
 H         2.4353580094        2.9567353108       -5.9057593227
 H         1.8773813735        2.7790671879       -4.2475651256
 H        -0.1675641915        6.5824515471       -4.5270778938
 H        -0.3301807009        6.5995647851       -6.3372218960
 H         0.8373698231        7.6554934881       -5.5997066434
 H         1.5028309600        5.8507181202       -7.6630977666
 H         2.8884028115        6.3544671438       -6.8989950944
 H         2.6238208408        4.6278870585       -7.0216144306
 H         0.7572458034        1.4729572002       -6.7476312690
 H        -0.2204459996        1.5823793256       -5.3094362244
 H        -0.3207953592       -1.7812384758       -2.0009636260
 H         0.6732194101       -2.9697841818       -2.8767196692
 H        -0.9705923672       -1.9473317977       -6.4829252802
 H         0.2443058821       -1.2277830381       -7.4539659327
 H        -0.8847648165       -0.1940713860       -6.4999430792
 H         1.5877909333       -2.9055468595       -6.2978618427
 H         2.7090123813       -1.5227430701       -6.2419297539
 H         2.5003590662       -2.4485653704       -4.7104762259
 H         2.4341474680       -1.0271857111       -2.6011597035
 H         0.9928380293       -0.0273590897       -2.0172160263
 H         2.6734941271        2.1738337249        2.1085253737
 H         2.1802378270        2.3273386765        0.3491767362
 H         4.0818602909       -1.9997593415        0.8273531979
 H         2.6737243318       -2.1560181196        1.7530800873
 H         3.8406445607       -0.9335202120        2.0982546243
 H         2.7692812314        0.9925099013       -1.1981352588
 H         4.0477290646        0.9784610613       -0.0087146389
 H         4.1192736056       -0.2038350391       -1.1897789608
 H         0.9101022548        3.8242419911        1.6748035468
 H         0.5364022896        2.4180427531        2.8346248146
 H        -2.6865917829        2.0565606315        2.7756719288
 H        -4.3095437545        2.6693669817        2.6977558830
 H        -0.6178334146        5.1739676124        1.4207810916
 H        -1.8301478229        4.6873562235        2.4821881625
 H        -2.3003811983        5.6019701173        1.1441711152
 H        -0.6601208003        3.6731962779       -1.1082815544
 H        -2.2187022761        3.2315118201       -1.5986426352
 H        -1.8704127609        4.8429189378       -1.0238649773
 H        -4.6014944018        0.9036975533        0.6057836556
 H        -3.3520357672        0.1947352857        1.3198434491
 H        -4.4833586778       -3.1483024216        4.2514694615
 H        -3.2865060848       -3.9765364892        3.4545026778
 H        -6.8127090494       -2.1270752399        2.0795312739
 H        -6.3058751744       -1.6755169643        3.7098868373
 H        -5.9047444928       -3.2954070318        2.9940670977
 H        -5.4569841486       -1.4912151541       -0.0069980021
 H        -3.7841042101       -1.5263641878        0.2513769283
 H        -4.7597671825       -3.0232949852        0.4809625327
 H        -2.8262417161       -3.2753085456        5.9774419560
 H        -2.4543044433       -1.7101569726        5.2564740705
 H         0.3642818567       -7.0066847171        2.6142083421
 H        -0.8780933303       -7.5397721964        3.6291938992
 H         1.1099815436       -5.8771634857        5.7765668894
 H         0.8148304857       -4.1296529940        6.2549900543
 H         1.8416623293       -4.4995222319        5.0022483990
 H        -2.4867198073       -5.7991123621        5.2685194351
 H        -0.9353298435       -6.8194388223        5.5569207813
 H        -1.4501352862       -5.5983879762        6.6826960374
 H        -2.1873187702       -6.1020859125        1.4755168062
 H        -1.3170211944       -7.0823286991        0.6327767761
 H        -5.1419239912       -8.6283646402       -1.3915784716
 H        -5.9370484185       -7.0290468544       -1.3815181431
 H        -4.3956239021       -7.1815258329       -2.0682115203
 H        -3.3272272931      -10.3026366401       -0.3432329813
 H        -2.7839065812      -10.2441258110        1.3863071067
 H        -2.0531937236       -9.2702073578        0.0061553879
 H        -4.8769653171       -9.5395156184        2.5118710136
 H        -5.5876135909       -8.0352067784        2.0504569020
 H        -5.7465389984       -9.6002322450        1.1260148091
 Na       -0.1054547466       -2.0378067000        2.1491770411
