155

 C         5.9813401262        4.0338824175       -1.5688802577
 C         4.7617668458        4.1518155401       -0.6365771471
 C         4.1168213906        5.5258242695       -0.0168908531
 C         3.1765836535        6.1616264756       -0.9929254594
 C         3.7458454411        7.0444677741       -2.1577474033
 C         3.2704408644        4.9724167933        1.0878802344
 C         5.2829176685        6.5054462616        0.4659724348
 O         4.1861971659        3.0766443194       -0.3866318346
 O         1.9716907132        5.8757009540       -0.9291655751
 C         2.7059016380        7.2118336191       -3.3647079936
 C         2.7810187626        5.9665555875       -4.2806924641
 C         1.7582892905        5.8890038326       -5.4650948017
 C         1.0867262907        4.5598456705       -5.6219841555
 C         1.7973329321        3.2204902174       -5.1803334788
 O         3.6200204107        5.1033092106       -3.9923675087
 O         0.0383113528        4.4609530629       -6.1720210938
 C         0.6306897578        6.9513002208       -5.4301690384
 C         2.5492761765        6.1528728464       -6.8493802792
 C         0.9163058051        2.0066176784       -5.3210779015
 C         1.7220416403        0.6829762735       -4.7613979318
 C         1.1456400850       -0.7321475237       -5.1261375112
 C         0.1936129173       -1.0127135486       -3.8342427842
 C         0.6322417424       -1.9511645205       -2.6727199359
 C         0.4249664474       -0.7497698586       -6.4436801290
 C         2.3429948963       -1.7279721881       -5.1056117863
 O         2.7315364326        0.8906474649       -4.1288180045
 O        -0.7756312732       -0.3064896804       -3.6517084628
 C         1.7267067690       -1.2282628010       -1.7051629501
 C         1.3506063576       -1.2126970770       -0.2290774249
 C         2.4042252183       -0.6678645946        0.7474176879
 C         1.6892284017        0.5099488784        1.4447394941
 C         1.5262646946        1.7602073227        0.6142675873
 O         0.3309511244       -1.6991170216        0.1938435038
 O         1.3049562434        0.4465303135        2.5983341131
 C         2.6613259125       -1.8149089691        1.7336992976
 C         3.7740621783       -0.2689735147        0.1061921350
 C         0.4599818251        2.8326429399        1.1826853272
 C        -1.0405965725        2.3104385485        1.1402468404
 C        -2.2471623153        3.4268340440        1.2232837191
 C        -3.6371940805        2.6905074940        0.8253258769
 C        -4.2107473371        1.6446803605        1.7374176894
 C        -2.3953133772        3.8114372056        2.6081429797
 C        -2.0753767688        4.6322500040        0.2630393647
 O        -1.2897999822        1.1372912347        1.1520540146
 O        -4.2661624082        2.9932582962       -0.1761916867
 C        -4.4349320318        0.3700377402        0.9885566928
 C        -4.9509184735       -0.6560413972        2.0660956331
 C        -4.9782410635       -2.1468150850        1.6579358549
 C        -3.5781554067       -2.4502258553        2.3272025690
 C        -3.6620869712       -2.9033849760        3.9016367652
 O        -5.2443037778       -0.3249083217        3.1683185320
 O        -2.5874839567       -2.1724153447        1.7555767113
 C        -6.1249167578       -2.9344124327        2.3322727121
 C        -5.0139287588       -2.4360084452        0.1372663607
 C        -2.4187396889       -2.4028241281        4.6465506364
 C        -0.9504247944       -3.0875019156        4.5929760477
 C        -0.6045364092       -4.6093720881        4.8749063338
 C        -0.5108266656       -5.1713321965        3.1845576796
 C        -0.4408922309       -6.7294578518        3.1033550711
 C         0.8181757502       -4.7708031717        5.3626677774
 C        -1.5889417551       -5.3983477093        5.7771334248
 O        -0.0245101485       -2.2902321512        4.2904313916
 O        -0.4403957132       -4.3846595265        2.2897504230
 C        -1.2286514607       -7.2760388526        1.7785548384
 C        -2.4905885698       -8.2269012284        1.9931574448
 C        -3.2202504113       -8.8507538595        0.7785551780
 C        -3.8930596061       -7.5903783925        0.0810196460
 C        -4.6151403049       -7.7514648623       -1.2189592065
 O        -2.8962152150       -8.3579582614        3.0846266844
 O        -3.7636276361       -6.4627795810        0.4474242316
 C        -2.4159636046       -9.5343328013       -0.3452952144
 C        -4.2949287264       -9.8016979719        1.4174679649
 H         5.8500854783        3.1617673838       -2.2104668883
 H         6.1586162976        4.8324361907       -2.2307739214
 H         6.8224636691        3.8477875274       -0.9217360594
 H         3.9615054353        8.0632745736       -1.8487968473
 H         4.6103657232        6.5907883930       -2.5702296086
 H         2.4818624727        4.3365369987        0.7344536652
 H         2.7491453884        5.7632607086        1.6643580548
 H         4.0081214362        4.4738774882        1.7844711436
 H         6.0498957602        6.5415291491       -0.3084839383
 H         4.8434276712        7.5143364161        0.6276879836
 H         5.5903336440        6.1958957052        1.4206492270
 H         1.7987601333        7.4509568322       -2.9004736276
 H         2.9930974201        8.1036297022       -3.9257115833
 H         2.7694895802        3.0679133958       -5.7949890772
 H         2.1480430609        3.2883275939       -4.1125104988
 H         0.0805246709        6.9196627052       -4.4446299388
 H        -0.1382058685        6.5508909866       -6.1211194189
 H         0.9626682664        7.9362633402       -5.6911334914
 H         3.0868870282        5.2701380336       -7.3947433628
 H         1.8737836861        6.5297034808       -7.5564984463
 H         3.3695444482        6.8593693924       -6.6189736550
 H         0.5535754067        1.8614907289       -6.3646100137
 H         0.0228748146        2.2069493062       -4.7437957305
 H        -0.1987276252       -2.0019550601       -1.9615495891
 H         1.0972736826       -2.8682395456       -2.8786114464
 H         0.2258024392       -1.7736958248       -6.7540353305
 H         1.0407768517       -0.1566048792       -7.1418364069
 H        -0.5188701381       -0.1720735513       -6.4654546744
 H         3.0602106088       -1.3699848910       -4.3332504772
 H         1.9581204821       -2.7390380853       -4.8799768376
 H         2.8082542286       -1.7125767882       -6.0640159549
 H         2.7175847702       -1.5956820747       -1.8467500032
 H         1.8029331086       -0.1339568984       -1.8541701359
 H         2.5448244374        2.2110635670        0.4885162458
 H         1.3076106403        1.4632174931       -0.3864497985
 H         3.3077030420       -2.6034081360        1.2482034713
 H         1.7095940242       -2.3435358172        2.0241854010
 H         3.0580629901       -1.3380697905        2.6424583204
 H         3.5452144367        0.4020344746       -0.7171943484
 H         4.3253875905        0.3221782059        0.8210795292
 H         4.2995025470       -1.0933086595       -0.4353272467
 H         0.6340441507        3.7024055613        0.5800934395
 H         0.8648719044        3.1267269991        2.1833066488
 H        -3.4137059884        1.5130884842        2.5123731197
 H        -5.1446808263        2.0873548284        2.1414138237
 H        -1.4926684357        4.4086272238        2.8940997211
 H        -2.4137670269        2.9080335882        3.2428613358
 H        -3.2879871907        4.5016044477        2.7445838702
 H        -0.9898286964        4.9664780745        0.3788090402
 H        -2.4202335740        4.5049078215       -0.7976340053
 H        -2.5942486726        5.4883557875        0.6986349557
 H        -5.1528975537        0.3913304761        0.1153194035
 H        -3.5181259372       -0.0949238252        0.6818960310
 H        -4.4701779907       -2.2481700781        4.1722590111
 H        -3.7851265969       -3.9062458864        3.9706427802
 H        -6.8918336734       -2.3916624070        1.7702542566
 H        -6.3960076808       -2.7524041698        3.3755328369
 H        -6.0775918127       -3.9354107298        1.9922834064
 H        -6.0444939954       -2.2884535219       -0.2370278085
 H        -4.3948551768       -1.8368509523       -0.5347271626
 H        -4.6908870195       -3.4489800862       -0.0806768641
 H        -2.6118742360       -2.6279096030        5.6715791385
 H        -2.2023776942       -1.3936015599        4.4798489965
 H         0.6227485724       -7.0583460717        3.0506671154
 H        -1.0159926787       -7.1763030072        3.9415922054
 H         0.9549049634       -5.7742262179        5.7570634047
 H         1.1060510281       -4.2433454994        6.2212236163
 H         1.5011600731       -4.6906198176        4.5669943013
 H        -2.3917516490       -5.8559150565        5.3283271856
 H        -1.1972998209       -6.1888461417        6.3343454939
 H        -1.9655064907       -4.8074749786        6.6185914600
 H        -1.5286230887       -6.4030679323        1.2327818476
 H        -0.4722936020       -7.8316641525        1.1687399365
 H        -4.8309984137       -6.8028803966       -1.7142527734
 H        -3.8031863574       -8.1585212055       -1.8911902474
 H        -5.4951388116       -8.4299656160       -1.1362244752
 H        -2.9328578082       -9.5586101474       -1.3394918146
 H        -2.2192404379      -10.5684476178       -0.0360344973
 H        -1.4678364482       -9.0906036049       -0.3882554227
 H        -3.9027737484      -10.4823892676        2.1273190025
 H        -5.1085098649       -9.2786772754        1.9639910351
 H        -4.9144074904      -10.2091892332        0.6156656299
 Na       -0.4181297665       -1.2480179577        2.3081150078
