155

 C         5.8429549966        4.1470089655       -1.5013526962
 C         4.5473413523        4.0982152276       -0.6933420631
 C         4.0771838203        5.4719783627       -0.1033684883
 C         3.0698721391        6.2540498617       -1.1275311366
 C         3.6077752973        7.3112950494       -2.0310006052
 C         3.3726977013        5.1360917595        1.2948683145
 C         5.2671055149        6.3339483322        0.2886243765
 O         3.9856768528        3.0454484605       -0.5398040380
 O         1.8875507826        6.1387236422       -0.9040866683
 C         2.7629847077        7.3418199323       -3.3459440246
 C         2.8334801216        6.1477384590       -4.2374740436
 C         1.8332875948        5.9789025517       -5.4449300326
 C         1.1359483580        4.5209610307       -5.5539016525
 C         1.8644316974        3.3354976113       -5.0419831084
 O         3.7071582981        5.2930746285       -4.1469793959
 O         0.1248350543        4.4138791767       -6.2146233338
 C         0.7474367754        7.0720449340       -5.3927915079
 C         2.7895578595        6.0974322616       -6.6823810627
 C         1.1735824689        1.9815516050       -5.2074181953
 C         1.8749557861        0.8067071656       -4.6777978236
 C         1.2893396334       -0.7140098766       -5.0241387957
 C         0.2258666403       -0.8104977500       -3.8461619773
 C         0.5697288236       -1.8654730000       -2.6469305801
 C         0.4548657536       -0.6756979559       -6.2991944129
 C         2.5116699106       -1.6683127080       -5.1544275135
 O         2.7979438976        0.8780589492       -3.8766965149
 O        -0.7823980016       -0.1119855638       -3.8860072625
 C         1.7263216251       -1.4588302955       -1.7401804473
 C         1.3017480576       -1.3183913009       -0.2190107640
 C         2.2316280633       -0.7160569487        0.8451605237
 C         1.5186819954        0.5281287743        1.4599626187
 C         1.4462282205        1.7933044925        0.5968199057
 O         0.2047911667       -1.7869656629        0.0927875792
 O         1.2279525523        0.6478764983        2.6582924860
 C         2.5671720790       -1.7246199522        1.9682708479
 C         3.6144964466       -0.3479701408        0.2477188361
 C         0.3280453389        2.7544786982        1.0849094237
 C        -1.0950141786        2.2567307495        1.2520421695
 C        -2.3246187696        3.2903116822        1.3691146449
 C        -3.6357647862        2.6525340352        0.8269385086
 C        -4.3674832996        1.5124175250        1.6718209556
 C        -2.3286842609        3.5832197476        2.8955134266
 C        -2.0206217915        4.5820943010        0.5957975201
 O        -1.3216095099        1.0351531112        1.4181271656
 O        -3.9310963619        2.8607213135       -0.3340776905
 C        -4.8183085219        0.2543838567        0.8785356971
 C        -5.1143751319       -0.8371009175        1.9404786559
 C        -4.9757347980       -2.3752861662        1.6004274037
 C        -3.6472371070       -2.5741077720        2.3530693894
 C        -3.6348447667       -2.8881478581        3.9042443412
 O        -5.3560812893       -0.6138994939        3.1409431299
 O        -2.6148130374       -2.2932389078        1.6808828108
 C        -6.3286520876       -3.0748660416        2.1160399102
 C        -4.8032402468       -2.7566461719        0.1117829652
 C        -2.3622127310       -2.4739368485        4.6536807571
 C        -0.9722413490       -3.0492433603        4.2824358699
 C        -0.6935680299       -4.5523302539        4.6745074493
 C        -0.5132198040       -5.3028149720        3.2360711764
 C        -0.6044595551       -6.8723061258        3.1767712457
 C         0.8209786891       -4.5370860742        5.1923655580
 C        -1.6836187868       -5.2502122111        5.6226134098
 O        -0.0373737454       -2.4160604327        3.8658677491
 O        -0.4679005275       -4.6232950787        2.2351452750
 C        -1.0961365333       -7.2957823455        1.7870045211
 C        -2.4023932263       -7.9928068622        1.9876981034
 C        -3.0241022315       -8.7388467311        0.7031720952
 C        -3.7800899597       -7.5567260591       -0.0230334232
 C        -4.6553406049       -7.8434895946       -1.1843639417
 O        -2.7883359684       -8.2117634828        3.1613306022
 O        -3.8236696492       -6.4726626900        0.5587532123
 C        -1.8457927957       -9.4474407603       -0.0925250018
 C        -4.0587442311       -9.7569268170        1.1265566346
 H         5.8069986940        3.5301508249       -2.4287438873
 H         5.9256086849        5.1599285091       -1.9764325488
 H         6.7390395657        3.9483326999       -0.8896574861
 H         3.4223888793        8.2655357769       -1.5217724486
 H         4.7025944657        7.2069041455       -2.3162419685
 H         2.2857250766        5.0565123591        1.0848786783
 H         3.4436891449        5.8586921379        2.1070244708
 H         3.7713751231        4.2584459243        1.6949395323
 H         5.5664733407        6.9014461637       -0.6070419246
 H         5.1421541139        6.9698285752        1.1702337840
 H         6.0472176698        5.6102668407        0.6627400630
 H         1.7120443035        7.3942949218       -2.9048137678
 H         2.9166929982        8.3340026096       -3.8347520107
 H         2.8289674105        3.3923853410       -5.4710016889
 H         2.0426869113        3.5537355543       -3.9956093290
 H         0.0500379970        7.0016435973       -4.5472602731
 H         0.1439256672        7.1075305531       -6.2610399975
 H         1.4236895362        7.9720176298       -5.4324790098
 H         2.7422199164        5.2689256872       -7.3148631442
 H         2.4431452676        6.8979851851       -7.3725693038
 H         3.8234748345        6.3051222447       -6.3613614457
 H         0.9925852030        1.8036628750       -6.2761277149
 H         0.1753375545        1.9291190686       -4.6773507352
 H        -0.2645614216       -1.8946196678       -1.9219006783
 H         0.7691103375       -2.9267117740       -3.0951367751
 H         0.2171535136       -1.6512258906       -6.7046131487
 H         0.7223161524       -0.0036965818       -7.0883948034
 H        -0.5236772613       -0.3356726405       -6.0075995156
 H         3.3805882769       -1.1112779261       -4.8030107656
 H         2.3488720401       -2.6017400762       -4.6326574853
 H         2.7702561055       -1.9982174519       -6.2083363205
 H         2.6065511535       -2.1988426872       -1.6974845428
 H         2.1926595287       -0.4622860795       -1.9664123367
 H         2.4086247515        2.2747844063        0.5699164666
 H         1.3442290792        1.5408091206       -0.4905262831
 H         3.1373637409       -2.5500087986        1.5738178902
 H         1.6096016541       -2.1232732808        2.2798640630
 H         2.9488209486       -1.2009146723        2.8538105932
 H         3.5374225866        0.4891448263       -0.4621557629
 H         4.2520733481       -0.0096723319        1.0828528898
 H         4.0446861822       -1.1384592403       -0.3109850266
 H         0.4002974140        3.6031143272        0.3667172009
 H         0.6861856497        3.2328837765        1.9944906521
 H        -3.6500074773        1.2313656322        2.4250557374
 H        -5.2767779430        1.9251662081        2.1230363053
 H        -1.7493500556        4.5002058610        3.0976153668
 H        -1.7724965125        2.7738328963        3.3971956362
 H        -3.3235475610        3.7202397601        3.2914479075
 H        -1.1179057284        5.0055419619        0.8691184551
 H        -2.0410495795        4.3662044610       -0.4589466230
 H        -2.7670816195        5.3572174360        0.8504494379
 H        -5.6935048235        0.2651161002        0.2442186789
 H        -3.9880462352       -0.2451726655        0.4153971431
 H        -4.5505467941       -2.4245004416        4.3025045128
 H        -3.6154065762       -4.0389988061        3.7683292033
 H        -7.2615177448       -2.5934672023        1.8499188541
 H        -6.2311232214       -2.9891982776        3.1865339244
 H        -6.1569180605       -4.1426679485        1.8320484996
 H        -5.4837140274       -2.2049125545       -0.5105027320
 H        -3.8220699625       -2.7014061536       -0.3120855054
 H        -5.1229703220       -3.8103848251       -0.0780675542
 H        -2.4462853187       -2.7088243065        5.7361290922
 H        -2.1299149969       -1.3778681488        4.5423625163
 H         0.3967381660       -7.2697826827        3.2423273800
 H        -1.2845832556       -7.3390973627        3.8765495099
 H         1.3506594905       -5.4598422418        5.1341216690
 H         0.7976485342       -4.3861534872        6.2817428253
 H         1.3503095173       -3.7428636724        4.6414259855
 H        -2.6861411317       -5.4722661518        5.1091783021
 H        -1.4487636306       -6.2475503399        6.0521015634
 H        -1.9543995781       -4.8361206785        6.5818105450
 H        -1.2432171497       -6.3100067081        1.2103320295
 H        -0.4044510090       -8.0232733801        1.3249531750
 H        -4.9940269077       -6.8333767214       -1.4662734515
 H        -4.2646017998       -8.2855921695       -2.0433053533
 H        -5.4861034102       -8.3627953200       -0.7723782168
 H        -2.3112603906      -10.2068489510       -0.6796970497
 H        -1.1640291432      -10.0206382685        0.5625010904
 H        -1.2211302142       -8.7194398960       -0.6878320675
 H        -3.5847334146      -10.3552123407        1.8700126282
 H        -4.8742828471       -9.3496603591        1.6516681777
 H        -4.5155516987      -10.3597890809        0.3510191682
 Na       -0.5495915193       -0.9796734018        2.2358550630
