155

 C         5.3154705941        4.0875552328       -1.8537753219
 C         4.2094019013        4.2484420081       -0.8463322965
 C         4.1308192556        5.6537563367        0.0289854861
 C         3.0772701013        6.4240468480       -0.9270056009
 C         3.4660236350        7.5818458373       -1.9335228506
 C         3.5495898800        5.1558195286        1.3380584853
 C         5.3769816640        6.5606870183        0.2881009756
 O         3.3678584974        3.3549554273       -0.7092359805
 O         1.9282073733        6.0483937972       -0.7324343527
 C         2.5829959406        7.4358900224       -3.2668310976
 C         2.9301034505        6.3614691544       -4.2057420830
 C         2.0804381103        6.1376647208       -5.4197842699
 C         1.4595259537        4.6633913794       -5.3982136801
 C         2.1359165032        3.4736784461       -4.6670850824
 O         3.9993443231        5.7417838741       -4.1627031848
 O         0.3692178653        4.5305650175       -5.8476300694
 C         1.0232612915        7.2112061170       -5.7207656567
 C         3.0520156166        6.1825473370       -6.5977919430
 C         1.6903995712        2.2035567104       -5.1901214797
 C         2.1402843294        0.9625192342       -4.4194268422
 C         1.4702898761       -0.4580808457       -4.8049579739
 C         0.2591160382       -0.7534236066       -3.6668564888
 C         0.6037275975       -1.8751565378       -2.6736041019
 C         0.8870879120       -0.5006808230       -6.1610603289
 C         2.5005767450       -1.5581576285       -4.7592417346
 O         3.0273350960        0.9025727188       -3.5886394022
 O        -0.7454454509       -0.0593922117       -3.6847480045
 C         1.7778742716       -1.4858183579       -1.8292116608
 C         1.2922387250       -1.2937354656       -0.3318427526
 C         2.3266250132       -0.7098419059        0.7901378445
 C         1.4349944377        0.5272260082        1.3464769513
 C         0.9631342482        1.5793213293        0.3421463457
 O         0.1195474968       -1.5743490095       -0.0918600056
 O         1.1385034803        0.6074255027        2.5231805376
 C         2.5595138475       -1.8190131660        1.8542185990
 C         3.6404471808       -0.2314732680        0.1843193946
 C         0.0811642748        2.7329832808        0.9495426389
 C        -1.2827927410        2.3943306282        1.4676934240
 C        -2.5565094927        3.2372028083        1.7651245507
 C        -3.5430227816        2.2605690168        0.8621489949
 C        -4.3778106769        1.2641875683        1.6344997846
 C        -2.8717180265        3.4151487928        3.2445893746
 C        -2.5772772064        4.6654547064        1.1601500880
 O        -1.5139325060        1.1717204709        1.5145007924
 O        -3.5486613418        2.3752501663       -0.3425858944
 C        -4.9219027815        0.0628207487        0.8400301299
 C        -5.4854674031       -1.0505481132        1.8396921578
 C        -4.9628456970       -2.5081513436        1.4408820178
 C        -3.5625522084       -2.6754954765        2.2580916409
 C        -3.6091850713       -3.0402852351        3.7841401010
 O        -6.2147354355       -0.8126495089        2.7854319535
 O        -2.5553096691       -2.5973117336        1.5471948360
 C        -6.1250746935       -3.6120844252        1.9062035313
 C        -4.6854194732       -2.7118634194       -0.0601132858
 C        -2.5206710871       -2.4738361051        4.6062404419
 C        -1.1802115982       -3.1038745883        4.2413478551
 C        -0.6533406531       -4.5550937880        4.6118961472
 C        -0.5695749539       -5.3660186777        3.2784645863
 C        -0.3741331903       -6.9334014198        3.4528103717
 C         0.7673256511       -4.3580210564        5.1639517490
 C        -1.5824192991       -5.2206681815        5.6485814257
 O        -0.3355382469       -2.4366492309        3.7291217576
 O        -0.4732120290       -4.8192293771        2.2077971476
 C        -0.6354718929       -7.7605646057        2.1166380862
 C        -2.1980897048       -8.2180754610        2.0488308344
 C        -2.8124474901       -8.7827932643        0.5957872342
 C        -3.7595508225       -7.6421617187       -0.0103864546
 C        -4.6298216523       -7.9405586744       -1.2343460739
 O        -2.8604944690       -7.9894909406        3.0279209885
 O        -3.5861773821       -6.5166195075        0.3005733434
 C        -1.6149285052       -8.9664184538       -0.3179485954
 C        -3.4853434556      -10.1201595840        1.0294685598
 H         5.5361078437        3.0190418236       -2.1294192414
 H         4.8767504843        4.4387343392       -2.7895640975
 H         6.1221378248        4.7427948070       -1.6849014409
 H         3.2543927523        8.4596487897       -1.3589741773
 H         4.5297196121        7.6074800906       -2.2659547615
 H         2.8291405154        4.3127547468        1.1331673453
 H         3.0064725618        5.9519629930        1.9153040769
 H         4.2510432480        4.8108557528        2.0533845581
 H         6.1342993565        6.5769645792       -0.5228998510
 H         5.0138913425        7.6063379149        0.3440547296
 H         5.8897366839        6.3294242906        1.2456590835
 H         1.5936750492        7.4066420100       -2.7770866631
 H         2.5759873209        8.3918433909       -3.8338677998
 H         3.2161383255        3.6276514343       -4.6516035276
 H         1.8092884577        3.5329640135       -3.6046785265
 H         0.5131141607        7.3792720052       -4.6760261532
 H         0.3131825201        6.8828357929       -6.4194108726
 H         1.4627155772        8.1522042756       -6.1507350826
 H         2.4896429958        6.5277544989       -7.4595575816
 H         3.9649616387        6.6801660140       -6.4077846260
 H         3.4250102140        5.1095391392       -6.7659271487
 H         2.1052462257        2.0997213443       -6.2219354711
 H         0.5650668910        2.1869917013       -5.1722017241
 H        -0.3419002792       -1.9490263577       -2.1584738754
 H         0.7158731065       -2.8247322046       -3.2672648644
 H         0.1989192170       -1.3119386295       -6.3755063287
 H         1.5637215735       -0.5984711403       -6.9767373477
 H         0.2213231553        0.3402017710       -6.2986347759
 H         2.9502610774       -1.7432240257       -3.8083082286
 H         2.1333459215       -2.4465450381       -5.1982893621
 H         3.4197374201       -1.3129831639       -5.3560179299
 H         2.6334824532       -2.2621782331       -1.7615585265
 H         2.3284970178       -0.5924092885       -2.1895006990
 H         1.7631813156        1.8745769693       -0.2827933422
 H         0.2890379838        1.0764996477       -0.4126445010
 H         3.2141047039       -2.5376011197        1.2777401948
 H         1.5830029647       -2.2345839371        2.2305275304
 H         3.1839726429       -1.4454645084        2.7175869137
 H         3.4903333284        0.5186020019       -0.6133624114
 H         4.2370113872        0.2543343464        1.0080891121
 H         4.2936001224       -1.0207825677       -0.0474746051
 H         0.0181038303        3.5064649344        0.1398510794
 H         0.6011931451        3.3718794395        1.6622570815
 H        -3.8418971055        1.1436683378        2.5995212189
 H        -5.3162678739        1.8800403756        1.8102953999
 H        -1.8882711610        3.7126369513        3.7340388659
 H        -3.0977063426        2.4135179420        3.6531447436
 H        -3.7266021204        4.1097520883        3.3775897830
 H        -1.7115372406        5.2465661484        1.4530038631
 H        -2.6032134362        4.6426737714        0.0332744949
 H        -3.5048988569        5.1464968824        1.6174631513
 H        -5.7524998235        0.3928106868        0.2242296956
 H        -4.1978708781       -0.3656110910        0.2619408694
 H        -4.6095125299       -2.7729140056        4.1108834971
 H        -3.5579639801       -4.1430563401        3.6032508589
 H        -6.7867948480       -3.8029042731        1.0551096498
 H        -6.6020814431       -3.2308082015        2.7968658102
 H        -5.6085619795       -4.5733939864        2.1840724003
 H        -5.6334912961       -2.7978658963       -0.5351669506
 H        -4.1170721656       -1.9599928671       -0.5262427364
 H        -4.2090056468       -3.6954708272       -0.3784005178
 H        -2.7245823208       -2.6994404389        5.6257559023
 H        -2.3876031404       -1.4080950678        4.6117969930
 H         0.7275198326       -6.9962094820        3.4878519939
 H        -0.8707577028       -7.4095813620        4.2866699617
 H         1.1095200564       -5.1627189815        5.7333088225
 H         0.7184252095       -3.4312881539        5.7268254621
 H         1.4502166118       -4.1415175330        4.3667833216
 H        -2.4281635859       -5.8116773367        5.2729235971
 H        -1.1039443229       -5.8821143893        6.3361798341
 H        -2.2477970082       -4.6000920378        6.2845748712
 H        -0.4975939555       -6.8936330931        1.4271288661
 H         0.0973015553       -8.5434510351        2.1299886601
 H        -4.5431826851       -7.0816449947       -1.9880999188
 H        -4.3391741963       -8.8815497370       -1.6973073357
 H        -5.6652528177       -8.1039247992       -0.9343487592
 H        -1.9182285138       -9.1516275287       -1.3263825224
 H        -1.0257900549       -9.8490171430        0.0719899978
 H        -1.0586181330       -8.0436036880       -0.2235739383
 H        -2.8096901059      -10.8002713669        1.3414406235
 H        -4.1647407453       -9.9031391227        1.8197179792
 H        -4.0095741135      -10.6909650229        0.2722433173
 Na       -1.0040564873       -1.0475154831        1.8719659343
