155

 C         5.0327437228        4.2030575600       -1.8442655227
 C         4.1332537951        4.4829706860       -0.6923977823
 C         4.0695976022        5.9590523445       -0.1262092971
 C         2.7940864206        6.6896071714       -0.7903146648
 C         2.8321411717        7.8951489367       -1.6472044692
 C         3.7927287166        5.8088477847        1.4086579766
 C         5.3214347845        6.7874098058       -0.2984427276
 O         3.2580995775        3.7301823121       -0.3062594218
 O         1.6744957267        6.1447775905       -0.6551937022
 C         2.3877512946        7.5955440213       -3.1514511198
 C         3.4477965071        6.8813490325       -3.9577870747
 C         2.7816980264        6.3328298823       -5.3071142297
 C         1.8402655141        5.1274505595       -4.7787686643
 C         2.4728232668        3.7909487942       -4.4636793320
 O         4.5970871917        6.5850736654       -3.6560936188
 O         0.6700565001        5.3346394108       -4.5805127236
 C         1.6939202548        7.3833441918       -5.9847546170
 C         3.8891492466        5.9535040733       -6.3175083574
 C         1.7570434876        2.4814518076       -4.9741601638
 C         2.4256491843        1.2681973819       -4.4242493625
 C         2.0042999890       -0.1319681009       -4.9613059751
 C         0.9454822780       -0.7086819348       -3.7666239523
 C         1.3034962635       -2.0552224478       -2.9926227721
 C         1.2039488947       -0.1659853467       -6.2232868905
 C         3.3190004504       -0.9711057187       -5.0155700682
 O         3.3984256049        1.3051892237       -3.6315693842
 O        -0.1148589988       -0.1461658706       -3.6175512600
 C         2.1460236053       -1.5970404553       -1.8142948005
 C         1.4758575081       -1.0639921182       -0.5230555413
 C         2.1809907182       -0.0233461060        0.4018219006
 C         1.0774870449        0.5711948701        1.3012887135
 C         0.1793815718        1.6887712831        0.6552843971
 O         0.3683517661       -1.5100233071       -0.2634192028
 O         1.0396693576        0.2296523779        2.4490673903
 C         3.0361468723       -0.9107355254        1.3341014096
 C         3.0930346651        0.9082472732       -0.3469994215
 C        -0.7553253259        2.4501524603        1.5606555475
 C        -2.1362445980        1.8175427155        1.9133830813
 C        -3.4030428442        2.7172048279        1.8654495307
 C        -4.6572609063        2.0487629055        1.1782741271
 C        -5.2999189277        0.7152848937        1.6148631364
 C        -3.7645585989        2.9394403336        3.3456798972
 C        -3.1404646239        4.1165225507        1.2225231860
 O        -2.1752974763        0.6465398104        2.3046647326
 O        -5.0620747291        2.6599588607        0.2359054816
 C        -5.1920804512       -0.2819009482        0.4533873932
 C        -5.8410565479       -1.6693990487        1.0338389573
 C        -5.0929056198       -3.0829954556        0.8073817751
 C        -3.7374538092       -2.8663599048        1.6145548975
 C        -3.2808442590       -3.7394478721        2.7788466712
 O        -6.8447036080       -1.5041169850        1.7240124608
 O        -3.0052950877       -1.9521513863        1.2468342831
 C        -6.0100244426       -4.1829116731        1.3432053099
 C        -4.6939171755       -3.4748396389       -0.6375474812
 C        -2.6242791041       -3.0041010060        3.9380881019
 C        -1.2063307251       -3.5499411595        4.1651618739
 C        -0.9365815420       -4.8419809233        4.9097312880
 C        -0.5679999007       -5.9444113590        3.7600406242
 C        -0.4257779864       -7.4229841445        4.1240498454
 C         0.4856161657       -4.7273563785        5.6894560410
 C        -1.9647893712       -5.3261305025        5.9319321110
 O        -0.2457379859       -2.9590343291        3.7075464525
 O        -0.3491056368       -5.5924291910        2.6380189018
 C        -0.6080815409       -8.3110746013        2.8385219925
 C        -1.8433828545       -7.9019545811        2.0292325245
 C        -2.0756207571       -8.4616651218        0.6031766770
 C        -3.2992223253       -7.7690587434       -0.1588918088
 C        -4.5870308224       -8.5304595177       -0.3074462907
 O        -2.6488115624       -7.1311480025        2.5126643222
 O        -3.1995966752       -6.7014782671       -0.6525123726
 C        -0.9864439242       -8.1023838119       -0.5203718281
 C        -2.2280915933       -9.9981092894        0.6052392940
 H         5.2064949194        3.1549655517       -2.0810496307
 H         4.7288331239        4.8448121729       -2.6563169196
 H         5.9971407625        4.5644474320       -1.6203262685
 H         2.0417465006        8.5693194519       -1.2163263241
 H         3.7326427467        8.4775299538       -1.6095484300
 H         2.8739725689        5.1987646445        1.6303963788
 H         3.5098420211        6.7536676252        1.8966510778
 H         4.6205590376        5.4012535296        2.0037224913
 H         5.7429110881        6.9387435085       -1.2596035019
 H         5.3157022351        7.7384658848        0.1416845068
 H         6.1285929794        6.3257149118        0.3010851112
 H         1.4485366309        6.9846053475       -2.9023861857
 H         1.9783658764        8.5221681102       -3.6164707724
 H         3.4893545690        3.6939574476       -4.8069432178
 H         2.5088312204        3.7389485258       -3.3485243143
 H         0.7283957573        7.4405335193       -5.3757069990
 H         1.3749450506        7.1893483965       -6.9576439216
 H         2.1812920477        8.4163025878       -5.8932738472
 H         3.4139402684        5.8223610730       -7.3001509213
 H         4.6157774803        6.7717855017       -6.4143321619
 H         4.3738382934        5.0020486675       -5.9441457910
 H         1.6768577472        2.2200842769       -6.0629105860
 H         0.6632863558        2.4195919698       -4.6420094263
 H         0.2960441291       -2.4287634982       -2.7367331202
 H         1.9111999445       -2.8940244545       -3.3923149223
 H         0.8119461024       -1.1594250209       -6.5014178289
 H         1.8538463745        0.2780023454       -6.9579024129
 H         0.3460085731        0.4854920834       -6.3022209979
 H         4.1270926019       -0.5562466172       -4.4622641633
 H         3.2611488898       -2.0008249988       -4.6300211479
 H         3.6571437696       -0.9811771812       -6.0551386861
 H         2.6112383812       -2.5786337962       -1.4852500063
 H         2.9362239673       -0.8572359797       -2.2055749994
 H         0.9154846024        2.4123037484        0.2541800516
 H        -0.1380820948        1.0598347514       -0.1394709245
 H         3.8515023038       -1.3787353212        0.7708753989
 H         2.4484943808       -1.7470604590        1.7581811030
 H         3.3302139508       -0.2491188516        2.1813374060
 H         2.7640304862        1.4368924220       -1.2539119056
 H         3.4120454864        1.7088890922        0.3188109346
 H         3.9833995734        0.4080533262       -0.7300272542
 H        -0.9696581037        3.3964129232        1.0387570193
 H        -0.1094808565        2.7745172134        2.4070612926
 H        -4.8379231076        0.2394765290        2.4689243930
 H        -6.3727532461        0.8264848997        1.8206278098
 H        -3.1296340162        3.6691643627        3.8486330873
 H        -3.6347522802        2.0044759238        3.9077339539
 H        -4.7954683522        3.3185089502        3.3223874986
 H        -2.5760418542        4.7162301548        1.9311887892
 H        -2.6366861671        4.0207668979        0.2388627169
 H        -4.1077824495        4.7087862741        1.1508246860
 H        -5.8848930468       -0.0915930457       -0.4576802855
 H        -4.1497658287       -0.4007673384        0.0610500317
 H        -4.0421991049       -4.4820651054        2.9999360602
 H        -2.4953770848       -4.4081041635        2.3343112684
 H        -7.0083397793       -4.0736067565        1.0002390026
 H        -6.1315208665       -4.0200440310        2.4070506849
 H        -5.6639626934       -5.2005574212        1.1345066877
 H        -5.6192523393       -3.4767814210       -1.2178991120
 H        -4.0166462227       -2.8032532897       -1.1749575130
 H        -4.1747247713       -4.4401646486       -0.5784380127
 H        -3.2210825553       -2.9838617618        4.8219832233
 H        -2.4670016162       -2.0330479954        3.5516157110
 H         0.5464246356       -7.6023328337        4.5646207778
 H        -1.0385284409       -7.8040543989        4.9754870104
 H         0.8657590154       -5.6959565361        5.8464686911
 H         0.2020362262       -4.4102470330        6.6546776126
 H         1.1033373666       -4.0857439663        5.1154138836
 H        -2.9539767939       -5.6188443451        5.4474313687
 H        -1.6570289189       -6.1151047696        6.6371611233
 H        -2.1175721463       -4.5055931749        6.6170662085
 H         0.3638799849       -8.3373198038        2.2748525281
 H        -0.6523790995       -9.3891092202        3.1709238490
 H        -5.4457148783       -8.0717000649       -0.9178969998
 H        -4.4546897797       -9.5920762905       -0.5340035994
 H        -5.0033109249       -8.4791010814        0.7385477996
 H        -1.2913383744       -8.6098361369       -1.4133762954
 H        -0.0064746059       -8.5061738569       -0.3040883112
 H        -0.9846897909       -6.9755746844       -0.6422525422
 H        -1.3982897729      -10.3607595584        1.1471389646
 H        -3.0319744111      -10.3356338500        1.2165846434
 H        -2.3241893163      -10.4676640822       -0.3807987200
 Na       -0.9392861376       -1.2619227362        2.0140427162
