155

 C         5.1505551158        4.1808923959       -1.6682542226
 C         4.0736981827        4.7166963195       -0.6503133235
 C         4.0443919981        6.1935642569       -0.1237267636
 C         2.7388201663        6.7562083736       -0.7547360664
 C         2.9063376491        8.0714693310       -1.6047639675
 C         3.8126942087        6.0404045839        1.3541511321
 C         5.3251468213        6.9443400901       -0.3611357101
 O         3.2026333831        3.9459468978       -0.2699459007
 O         1.6675741725        6.2580673430       -0.6191629498
 C         2.3342967419        7.9032450598       -3.0257790043
 C         3.3072721375        7.0157892366       -3.8821140806
 C         2.7573826484        6.2951843225       -5.2295321762
 C         1.8686680228        5.1133740912       -4.7384033905
 C         2.5169675242        3.8178792136       -4.3393937863
 O         4.4757520258        6.8772299225       -3.6036064701
 O         0.6578376046        5.2347016184       -4.6091745455
 C         2.0243054621        7.4335100841       -5.9483463467
 C         3.9323118473        5.9107237501       -6.1714001599
 C         1.6862544887        2.5612380556       -4.7135938062
 C         2.4751673814        1.2234685945       -4.4429741814
 C         2.1698915988       -0.1435671374       -5.0050453590
 C         1.0903372843       -0.6586883246       -3.8137783005
 C         1.2027788546       -1.8616780058       -2.8932665448
 C         1.2856335636       -0.0612860336       -6.3115566572
 C         3.2198081073       -1.1389279893       -5.2102144653
 O         3.3439530889        1.3083773678       -3.5991865916
 O         0.1075106871        0.0466309470       -3.7836072359
 C         2.1279074425       -1.6804727715       -1.5823737359
 C         1.4234284718       -1.2163140856       -0.3350805545
 C         2.1297559935       -0.1017134033        0.6403185133
 C         1.0267179267        0.6534982318        1.2759266727
 C         0.1798052328        1.7727041097        0.5866838654
 O         0.3323112395       -1.6777858862       -0.0822421579
 O         0.7163969633        0.4114881270        2.4488439344
 C         3.1664728962       -0.8537398954        1.6030343828
 C         2.8370780770        0.8814559725       -0.3263788209
 C        -0.7306235794        2.3945486898        1.6312960901
 C        -2.0814074564        1.6752570492        1.8667338348
 C        -3.4655280757        2.5747337316        1.8112354162
 C        -4.7110559702        1.9190812484        1.0331323528
 C        -5.2479258103        0.5921726071        1.5541175590
 C        -3.9277232570        2.4542578332        3.3246380032
 C        -3.2604910493        4.0039579704        1.3362572826
 O        -2.1661244367        0.5088986400        2.1490638464
 O        -5.2794912432        2.5195406443        0.1369878940
 C        -5.2936537468       -0.4677136174        0.5018250039
 C        -5.8764605775       -1.7171120408        1.0917752375
 C        -5.0058076484       -3.1605301568        0.7616213624
 C        -3.6744542496       -2.9152109324        1.4123080616
 C        -3.3866704916       -3.9406038289        2.6512078946
 O        -7.0155344486       -1.8101692072        1.4854151970
 O        -2.8475455174       -2.0126339344        1.1718522725
 C        -5.8254200873       -4.2579895892        1.2249673229
 C        -4.9101342425       -2.9374996223       -0.8729315000
 C        -2.6812351836       -3.1799250917        3.8066001776
 C        -1.2323422597       -3.6321429097        4.0232655099
 C        -0.8677927123       -4.7948373214        4.8877287752
 C        -0.6579379113       -5.9741087711        3.7773165690
 C        -0.8391373417       -7.4719308546        4.0489918241
 C         0.4585884480       -4.7302400724        5.6550556562
 C        -2.0128661162       -5.1391427967        5.7769005133
 O        -0.3082916650       -2.9686595784        3.5084541963
 O        -0.0283840805       -5.6791358319        2.8030901380
 C        -0.6950122334       -8.3294469167        2.7821007838
 C        -1.7602412578       -7.9220334547        1.8182995554
 C        -1.9381108743       -8.4771401513        0.4916174445
 C        -3.3035575290       -7.8153153944       -0.0632510045
 C        -4.6392590503       -8.5696228104        0.2083165737
 O        -2.5154582854       -7.0137412423        2.1562515410
 O        -3.3172752628       -6.6343650180       -0.4553644790
 C        -0.5373724492       -8.0427908628       -0.2248849205
 C        -2.0005598925       -9.9951886870        0.4345734606
 H         4.8530925708        3.2264017120       -2.0495637243
 H         5.3272757283        4.9255023772       -2.4714268139
 H         6.1606704061        3.8456219642       -1.2429682299
 H         2.6313692094        9.0052406900       -1.1118559689
 H         3.9271519115        8.2285330838       -1.9999059154
 H         2.8499740551        5.7168516719        1.6023656452
 H         3.9018038157        6.9575364973        1.9420522469
 H         4.6334770277        5.4706368917        1.8296113788
 H         5.5735623250        7.0023574690       -1.4541340907
 H         5.2433237090        8.0532603155       -0.0793380976
 H         6.2658271516        6.6267195300        0.0959429875
 H         1.3403819009        7.5985086757       -3.0798899208
 H         2.3836515111        8.9155814870       -3.4056109424
 H         3.5154283485        3.6898199189       -4.7893950551
 H         2.7169600154        3.8493842606       -3.2865966887
 H         1.1898608304        7.8236122667       -5.5171453702
 H         1.6660602027        6.9289931108       -6.9028111051
 H         2.6820747659        8.2023022986       -6.2418103131
 H         3.7451943853        6.2054182450       -7.1738373575
 H         4.7334250469        6.6004316352       -5.8541990255
 H         4.2747568353        4.9706276912       -6.0313948734
 H         1.3319465915        2.4951774863       -5.7249485104
 H         0.7771179269        2.5760007647       -4.1808940168
 H         0.2375791019       -2.3823801120       -2.6279870282
 H         1.8146251920       -2.5375076019       -3.4922697394
 H         1.0170217890       -1.0596217164       -6.5557625943
 H         1.9172058653        0.3976518676       -7.0820543943
 H         0.3489006812        0.5083042685       -6.2674764505
 H         3.8911003220       -1.2875085927       -4.2946133515
 H         2.7566949339       -2.1038770533       -5.6001440860
 H         3.8917951765       -0.8341463070       -6.0048090803
 H         2.5373641329       -2.6511359279       -1.3234292795
 H         2.8477641197       -0.9481737335       -1.7670288351
 H         0.9387751983        2.4840116547        0.2614005304
 H        -0.3126809491        1.2226995970       -0.2637007339
 H         3.9431646622       -1.3214583661        0.9502839341
 H         2.6526373459       -1.6343727894        2.2041550787
 H         3.5108734682       -0.1468334056        2.3575589120
 H         2.1626067355        1.2166374357       -1.0958237471
 H         3.1692864031        1.8100963041        0.1132160801
 H         3.7403938975        0.5668459232       -0.8750214336
 H        -0.9611610185        3.4043603623        1.3475094884
 H        -0.1550073667        2.4304678976        2.5657883001
 H        -4.5344578745        0.2322637857        2.3186562988
 H        -6.2110286886        0.8055771400        1.9800282826
 H        -3.0849310623        2.8828834880        3.9123488626
 H        -3.9845240396        1.4109183379        3.7036114020
 H        -4.8443739338        3.0577866575        3.4763535170
 H        -2.5271602487        4.5521532990        1.9641573432
 H        -2.9391657085        4.0176682617        0.3131189686
 H        -4.1492735875        4.5262531984        1.4887713163
 H        -5.9046216079       -0.1685572242       -0.3241061789
 H        -4.2707940844       -0.6811885868        0.1293496093
 H        -4.2820573312       -4.4970384667        3.0484935185
 H        -2.8004651532       -4.7903898127        2.2962193429
 H        -6.6510419421       -4.5217665441        0.5203608804
 H        -6.3543175568       -3.9945364802        2.1635335142
 H        -5.2145893734       -5.1401338403        1.3464376038
 H        -5.9067472510       -2.8279755906       -1.2940291675
 H        -4.2702648366       -2.0829833053       -1.1767976827
 H        -4.4498261404       -3.8143652795       -1.2671173538
 H        -3.3119025351       -3.4042130089        4.7264993552
 H        -2.6679433454       -2.0666426422        3.5526355686
 H        -0.0681518121       -7.6908035853        4.8267451309
 H        -1.6257481739       -7.8331343012        4.6571527746
 H         0.7923716006       -5.7364575733        5.9261800956
 H         0.2806393682       -4.1207533912        6.5267207832
 H         1.0692694237       -4.2650192206        4.9065176029
 H        -2.8947236197       -5.3131426525        5.1557567377
 H        -1.8519518744       -5.9802993517        6.4945575562
 H        -2.2674383720       -4.2993153024        6.4833804437
 H         0.2640411618       -8.1940842158        2.3204271152
 H        -0.5866646801       -9.3715270415        3.0404150616
 H        -5.3324994049       -8.2191821114       -0.4656139145
 H        -4.5990339106       -9.6396197946        0.0051523474
 H        -5.1361173944       -8.3299262731        1.1352318307
 H        -0.6163818728       -8.1267285118       -1.3359494189
 H         0.2220588723       -8.8046124260        0.0112585690
 H        -0.3162719980       -7.0480656702        0.0877207648
 H        -1.0119146048      -10.5701369827        0.4467418626
 H        -2.6611207499      -10.4415729881        1.1859842532
 H        -2.3560943521      -10.2054209047       -0.5484144469
 Na       -0.7307689327       -1.5282577897        2.0365077553
