155

 C         2.4430445816       -8.2238653337       -1.7351539109
 C         2.7839348179       -8.8100649379       -0.4103829914
 C         3.8480099691       -8.0768193043        0.3528783605
 C         3.1000759938       -6.7760203236        1.0335824655
 C         3.7964408400       -5.6953063558        1.8549328552
 C         4.2346721370       -8.8987264940        1.5830773169
 C         5.1201421296       -7.8505298252       -0.5464198170
 O         2.2094059157       -9.7963862239       -0.0138513583
 O         1.9268772782       -6.6517050116        0.9289001130
 C         2.8885918096       -5.0061909016        2.7622064808
 C         2.9068271092       -3.4424573705        2.4082696892
 C         1.5974653536       -2.4969997418        2.6485197378
 C         2.1097561306       -1.1274022797        3.3880189766
 C         3.4338377703       -0.4794557459        3.3160782430
 O         3.8540555200       -2.8694600644        1.8783322503
 O         1.3734434889       -0.7288951762        4.2534691772
 C         1.0631825645       -2.1270571496        1.2623898354
 C         0.5617654854       -3.0390070068        3.5971449879
 C         3.2134802314        1.0504236126        3.7067811169
 C         2.4263808821        1.8513084649        2.6731571844
 C         1.6584978429        3.1498288160        2.9106114573
 C         2.0508257364        4.1278136358        1.7120730767
 C         3.2037747442        5.2251831150        1.8890119778
 C        -0.0275789658        2.9543526487        2.7328146627
 C         2.0262556981        3.8167171359        4.2290938124
 O         2.2363898537        1.2320804470        1.5957015762
 O         1.5666117986        3.9608501362        0.5682106894
 C         3.9384805863        5.4461155346        0.5437934017
 C         5.0376157125        4.4639108616        0.1960635962
 C         5.9144152544        4.6220670800       -1.0675522429
 C         5.5939058756        3.4493938010       -2.0157883338
 C         6.3655215444        2.0743258512       -1.7393572850
 O         5.3516915292        3.5544755008        0.9309902931
 O         4.9084018337        3.6071223233       -2.9926494248
 C         5.7078089897        6.0793233489       -1.7028192981
 C         7.4119743377        4.6581440759       -0.5830572189
 C         5.7323700947        0.9990022409       -2.6742833832
 C         4.1547074991        0.8183581787       -2.3977640421
 C         3.4019987273       -0.4980849156       -2.9611169302
 C         1.8137654720       -0.2127834913       -2.8929245485
 C         1.3449106779        0.2786348459       -4.3652426505
 C         3.8749421889       -0.8207854874       -4.4690125119
 C         3.6205391375       -1.7371981040       -2.0341556532
 O         3.7981665688        1.3990873272       -1.4143394223
 O         1.1387064133       -0.1082079738       -1.9337389201
 C        -0.1293696840        0.8255524973       -4.3287467609
 C        -0.1350356450        2.0238491321       -3.3639276394
 C        -1.6242037221        2.6140625947       -2.9476062333
 C        -1.8272036746        1.9131297287       -1.4789858009
 C        -3.2283406492        1.1732180709       -1.2417711866
 O         0.8881693841        2.3573491417       -2.7644533107
 O        -0.9323967592        1.8557584964       -0.6579887106
 C        -1.4959693443        4.1322855965       -2.8692732825
 C        -2.7056383567        2.2665063038       -4.0363987684
 C        -4.1973206436        2.0659815691       -0.4811166917
 C        -5.1914186591        1.2747627078        0.3749184185
 C        -6.7457849333        1.6646801098        0.2783353073
 C        -7.3410107502        0.8125946853       -0.9527256338
 C        -8.2155248436       -0.3787443912       -0.4269101465
 C        -7.3453534578        1.3790888173        1.6580544719
 C        -6.7956773414        3.2560692803        0.1265762595
 O        -4.7657601796        0.4879746179        1.2160506196
 O        -7.1367456096        1.0262695158       -2.1303461447
 C        -9.0771077316       -0.9877947295       -1.5595803900
 C       -10.5503799751       -1.4092862879       -1.0577785850
 C       -11.4421895214       -0.3754402098       -0.2099451102
 C       -11.1127517307       -0.4655853048        1.3055760892
 C       -11.5186812188       -1.8425919573        1.9364411806
 O       -10.9324038532       -2.5716639744       -1.1614130858
 O       -10.4173886576        0.3137558481        1.8982210440
 C       -11.2342738032        1.1289778749       -0.7179714044
 C       -13.0210122811       -0.7153732999       -0.4084382162
 H         1.6437020518       -8.8535013669       -2.1546998222
 H         1.9959219908       -7.3013789141       -1.4510940161
 H         3.2847198986       -8.2372865703       -2.4845322672
 H         4.7252115905       -6.1599424942        2.2442869947
 H         4.2857432508       -5.0412824245        1.1744474588
 H         4.4466501695       -9.9359254426        1.2491442827
 H         3.4701061455       -8.8313105359        2.3182100923
 H         5.2047887269       -8.6256941035        1.9238116902
 H         5.2582391035       -6.7688678412       -0.8728580073
 H         6.0752468870       -8.0171789969        0.0168233838
 H         5.0471808556       -8.4474745476       -1.4516248111
 H         1.8335181955       -5.2630170055        2.6031321721
 H         3.0786034321       -5.4403591538        3.8283659939
 H         3.9608546765       -1.0004921605        4.0779400107
 H         3.8593323968       -0.6772078548        2.3174930405
 H         1.0569616191       -2.9204168599        0.5715167797
 H         1.9760677151       -1.7250058090        0.7459427996
 H         0.1422057673       -1.5686521337        1.1228888211
 H         0.0144690657       -3.8429280434        3.0774086736
 H         0.9878115264       -3.4226039019        4.4988950566
 H        -0.0554055392       -2.2045978377        3.8920828394
 H         4.2228599866        1.4643437245        3.9222879121
 H         2.7367190604        1.0383500307        4.6336995417
 H         2.5906203044        6.0838224011        2.1747721045
 H         3.9129421247        4.8872068662        2.6562812312
 H        -0.3720922406        4.0030482631        2.7299050266
 H        -0.5378108476        2.3865481494        3.4450086643
 H        -0.1042117048        2.6251941112        1.6290023917
 H         1.4460582647        3.4947085998        5.1097880574
 H         3.0434931369        3.7683577130        4.6036496342
 H         1.8946452054        4.8490942932        4.1652678805
 H         3.1783400812        5.2947144692       -0.2513819894
 H         4.2981786343        6.4889442795        0.5291449454
 H         7.3501962155        2.3848098394       -2.0079467789
 H         6.4515322544        1.7873003087       -0.6600391825
 H         5.9193992632        6.8983286592       -1.0112535019
 H         4.7470163611        6.1674977465       -2.2437200802
 H         6.3231427082        5.9768512720       -2.6327286967
 H         8.1165895320        4.5474740560       -1.4532331655
 H         7.5769093506        5.6260091435       -0.1026260402
 H         7.5485436495        3.8265850454        0.1399886670
 H         6.2351866055        0.0862016831       -2.3561284359
 H         5.8593471945        1.2581622803       -3.7043608863
 H         2.1016679529        1.0203756763       -4.6982961690
 H         1.4439630904       -0.5074680684       -5.0980314460
 H         4.8747515066       -0.9996762118       -4.4753059423
 H         3.7615622694        0.0692126382       -4.9880807343
 H         3.3180349776       -1.5876428468       -4.9826213492
 H         4.5846116883       -2.2015701467       -2.0499755717
 H         3.5102095153       -1.5390477429       -0.9857403448
 H         2.8359919678       -2.4906509849       -2.3317389739
 H        -0.3872060925        1.1368073576       -5.3693902072
 H        -0.9028762137        0.0355616023       -4.1430834447
 H        -3.5630872519        0.9128376847       -2.2392236243
 H        -3.0944242791        0.2413173058       -0.6837684243
 H        -0.6681509428        4.4251916524       -2.2866417495
 H        -2.4204619197        4.5748875844       -2.5380432726
 H        -1.4798787634        4.5864170345       -3.9238465191
 H        -3.7575871396        2.4827231867       -3.9345169639
 H        -2.4775539453        2.7892497466       -4.9445720899
 H        -2.7219940647        1.1457281503       -4.3617637896
 H        -4.6952585864        2.6934890254       -1.2181900077
 H        -3.7100563889        2.7003202481        0.1734839753
 H        -7.7086833512       -1.2270437770        0.0352713044
 H        -8.8985863162       -0.0799103624        0.3321267034
 H        -6.6829787573        1.9790872254        2.3001602979
 H        -7.3543125677        0.3300608158        1.7384021418
 H        -8.3700839184        1.7523640820        1.7059239527
 H        -7.8124893273        3.5951718739        0.2572869343
 H        -6.1360006100        3.7383423941        0.9082535476
 H        -6.6148892991        3.5933634094       -0.8824739462
 H        -9.2476820451       -0.1643150868       -2.2643563253
 H        -8.4639077065       -1.8214577405       -2.0416696552
 H       -11.1213347882       -2.6097172197        1.2886284180
 H       -11.1649697405       -1.9696034357        2.9386560464
 H       -12.5607978017       -1.8687625683        1.9768561879
 H       -10.6876806319        1.7201880280        0.0301000787
 H       -12.1845980903        1.6360164571       -0.8203882443
 H       -10.7558828747        1.1060380901       -1.6925105988
 H       -13.5044646069       -0.1721571385        0.4088034268
 H       -13.4348774695       -0.3491708672       -1.3286689585
 H       -13.3334365306       -1.7832053074       -0.2777165211
 Na        1.5617963664        2.0919902585       -0.6612062812
