155

 C         5.6122924174        5.2288425167       -0.1429304531
 C         4.2081754303        5.6335818013        0.2191816542
 C         3.8030295904        7.1949204267        0.4959291229
 C         2.6950912582        7.5415230745       -0.4957841162
 C         2.9383011635        8.7859814513       -1.5590724830
 C         3.2704796624        7.2445034495        1.9590138392
 C         5.1643737165        8.0665580388        0.5864626034
 O         3.2362346226        4.8780138970        0.1899227893
 O         1.5681840939        7.0568278161       -0.5013346204
 C         2.6754906854        8.3222042139       -2.9855415522
 C         3.5026714235        7.1546500509       -3.5221972474
 C         2.9917609808        6.7013573775       -4.9672170952
 C         1.9330897845        5.4909890916       -4.6169695232
 C         2.5095800617        4.1341929939       -4.1081830971
 O         4.4761206684        6.6813707699       -2.9616790931
 O         0.7618062560        5.7480983301       -4.8314021014
 C         2.2501249935        7.7307449489       -5.8061782056
 C         4.1613978610        6.1505742338       -5.8226849628
 C         2.0347014605        2.9006554535       -4.8559545483
 C         2.5534219933        1.5593836136       -4.2477055070
 C         2.0570433324        0.0830650968       -4.7927650995
 C         1.2807913568       -0.6216355546       -3.5307300859
 C         2.0144146788       -1.6485512192       -2.6731420142
 C         1.2312732985        0.3001377563       -6.1432242511
 C         3.3966736612       -0.7206958654       -5.0951794984
 O         3.2820787548        1.5724675873       -3.2812957896
 O         0.1374222414       -0.2733337184       -3.2905473047
 C         2.7704445291       -0.8914441040       -1.5623159345
 C         1.7543266002       -0.7461668960       -0.3647366277
 C         2.1367843975        0.2895671228        0.8906620975
 C         0.7208304178        0.8917782462        1.3448457387
 C        -0.0752610177        1.8608165477        0.4518185976
 O         0.8212873391       -1.5159146942       -0.3309854846
 O         0.2435873687        0.4195986216        2.3868505809
 C         2.6477500307       -0.4147425423        2.1343890392
 C         3.0858270194        1.3252025059        0.2637527706
 C        -1.3502155068        2.3311050380        1.1996288157
 C        -2.4316347193        1.2216927028        1.4433718289
 C        -3.8441243326        1.4644844997        2.0884702578
 C        -4.8677103669        0.8224936412        1.0427661210
 C        -4.8036676179       -0.6988324175        0.9845028800
 C        -3.9438625413        0.8056705934        3.4974778134
 C        -4.1948927156        2.9978819083        2.1046299548
 O        -2.1763500422        0.1517007039        1.0036846431
 O        -5.5941979428        1.5495683166        0.4398957248
 C        -5.8968626679       -1.3357917058        0.0352305219
 C        -5.9912973918       -2.8501844206        0.2241818048
 C        -4.7234373883       -3.8343123465       -0.2147327444
 C        -3.6376515854       -3.5086683137        0.8207583391
 C        -3.9018604252       -3.9692354010        2.2307321809
 O        -7.0701502696       -3.2383338408        0.6524246495
 O        -2.5815760222       -2.9669903765        0.4744624519
 C        -5.4251575053       -5.2117775063       -0.0343116155
 C        -4.2214578049       -3.5902024769       -1.7392496363
 C        -2.9551398265       -3.3132507031        3.3820969638
 C        -1.4549317796       -3.9235275645        3.6021543458
 C        -1.1136702511       -4.8091723525        4.8471733008
 C        -0.3111152675       -6.0483741439        4.3739927154
 C        -1.0742998154       -7.4920862232        4.2954579510
 C        -0.0554808889       -3.9822257258        5.7024604846
 C        -2.3069400511       -5.2128874497        5.7936837150
 O        -0.6532916355       -3.1627906141        3.1149147313
 O         0.8698961209       -5.9368276349        4.2786773052
 C        -1.0991479349       -8.1405065207        2.8730314436
 C        -2.0780730471       -7.5917278962        1.7719269459
 C        -1.7184073671       -8.0208497704        0.2343280502
 C        -3.0392585155       -8.5306828885       -0.4300383359
 C        -3.9422131737       -9.6041192416        0.3002841811
 O        -3.1957927772       -7.1550797183        2.0352186518
 O        -3.3545250078       -7.9900042675       -1.4861467119
 C        -1.3065716845       -6.7356229783       -0.4031195959
 C        -0.6066421290       -9.0959600349        0.0891064493
 H         5.6298023498        4.2129535006        0.0155418889
 H         5.8149649836        5.3645263197       -1.1882683810
 H         6.3618474369        5.7945870835        0.4401983361
 H         2.3305581176        9.6464316342       -1.3303899942
 H         4.0459020172        9.0467412208       -1.4714446305
 H         2.2950457864        6.8446062688        2.1632840621
 H         3.2144180866        8.3335691864        2.3078672502
 H         3.9603274535        6.7468056802        2.6421984801
 H         5.8080478451        7.7345125035       -0.2198410586
 H         4.8535748678        9.1399477598        0.4314064020
 H         5.5842539147        7.9966731557        1.5661816544
 H         1.5609553671        8.2591229657       -3.0888534116
 H         2.9723572872        9.1126833156       -3.6584165353
 H         3.5740026188        4.2362722960       -4.3235957683
 H         2.3206325996        4.1364511693       -3.0329347779
 H         1.3364924843        8.0720131365       -5.3750169625
 H         1.9262733143        7.1876952545       -6.7102014929
 H         2.8681111537        8.5972564188       -6.0982546778
 H         4.0254563710        5.2332122083       -6.3489403525
 H         4.5425134902        6.9475969261       -6.5381992190
 H         4.9215041307        6.0841830385       -5.0935790072
 H         2.2399757416        3.0881977645       -5.8838085462
 H         0.9572102206        2.6909588810       -4.7005999184
 H         1.2623089396       -2.4034281837       -2.3178533667
 H         2.8275279617       -2.1839195765       -3.2760565269
 H         1.1959900257       -0.6522310815       -6.5912689604
 H         1.6461215473        1.1716412358       -6.6583309908
 H         0.2264220733        0.6249921032       -5.8787273716
 H         4.0271544231       -0.7621993081       -4.2273229423
 H         3.2202789761       -1.7123686585       -5.4150309387
 H         3.7859350353       -0.0765768474       -5.8319259996
 H         3.6356905872       -1.4843835193       -1.2745432653
 H         3.3616806808       -0.0352406332       -1.8906256142
 H         0.6011150907        2.6978097422        0.1467785968
 H        -0.3019877073        1.2331458140       -0.4555275878
 H         3.7159606957       -0.6452176886        2.0016043532
 H         2.1370127850       -1.3310029686        2.4271450590
 H         2.4242341958        0.2933375694        2.9148900048
 H         2.6463209751        1.6609995815       -0.6921772420
 H         3.2070824482        2.2159809703        0.9308123499
 H         4.0840674550        0.9616848708        0.0688691207
 H        -1.8175034935        3.1663355618        0.6329352187
 H        -0.9658379101        2.8693161607        2.0200198344
 H        -3.8130480469       -0.9481678600        0.6651786489
 H        -4.8616863482       -1.1234581561        1.9874439728
 H        -3.6467559073        1.4402829832        4.3465861365
 H        -3.2688328475       -0.0198792030        3.5725828959
 H        -4.9209553715        0.4569473110        3.7686854062
 H        -3.8304504612        3.7715483854        2.8298451021
 H        -4.0595777380        3.3545856845        1.0624658643
 H        -5.2601854618        3.0960789439        2.2876585123
 H        -6.7776716814       -0.8482479390        0.1756581080
 H        -5.5830583008       -1.0759219701       -0.9602810971
 H        -4.9223437908       -3.7436386706        2.4378095421
 H        -3.7379885053       -5.0985181426        2.1914013556
 H        -6.1945810630       -5.5143763202       -0.7634602552
 H        -5.8986046576       -5.2741414385        0.9160716666
 H        -4.7710329139       -6.0594674567       -0.0779934683
 H        -4.0517728008       -2.5475081613       -1.9927669093
 H        -3.3833226159       -4.2918895151       -1.8348656842
 H        -4.9062849689       -4.0495478218       -2.3917469789
 H        -3.5531877892       -3.3953560777        4.2981599165
 H        -2.8006579518       -2.2098115114        3.1859405893
 H        -0.4850366969       -8.0216040623        5.0139478444
 H        -2.0810314537       -7.1848611819        4.5418419027
 H         0.3124092967       -4.4881858476        6.5759943839
 H        -0.6597903763       -3.1717837083        6.0684488123
 H         0.7197326025       -3.7194920358        5.0208954911
 H        -3.0725663321       -5.8338986970        5.3219263292
 H        -1.8612978033       -5.6312931334        6.7148843395
 H        -2.7224860265       -4.1681098857        5.9847555107
 H        -0.0834867497       -8.2779277696        2.4159144369
 H        -1.6188037827       -9.0723466779        2.9837080792
 H        -3.4167391897      -10.3752985297        0.8293763319
 H        -4.6037478448       -9.1782195402        1.1169375051
 H        -4.6835865084      -10.0510237094       -0.4305001145
 H        -1.3024204842       -6.8951422022       -1.4853148858
 H        -0.2459607499       -6.5101354269       -0.1422792973
 H        -1.9253143229       -5.9349131327       -0.1012192091
 H         0.2775830868       -8.7859244585        0.6700295089
 H        -0.9155681104      -10.0265681911        0.5071466247
 H        -0.3644517352       -9.1660504905       -0.9105820850
 Na       -0.7406435214       -1.6896723499        1.2350573373
