155

 C         5.4457821696        5.8060188323       -0.1225682792
 C         4.2063850526        5.8143079562        0.7235584870
 C         3.6208943331        7.3193473351        0.9124967948
 C         2.8848632548        7.6559651042       -0.4423436655
 C         3.3858370707        8.8245530943       -1.3712862336
 C         2.5921186104        7.1778648915        2.0468909547
 C         4.7453468381        8.3928613634        1.2772585855
 O         3.5436611915        4.8623771563        1.0860212045
 O         1.8220430545        7.0696769736       -0.7055027686
 C         2.6572154221        8.6424626688       -2.7356549456
 C         3.2900624535        7.3569890925       -3.4518182004
 C         2.9463217237        6.8706821986       -4.9145140080
 C         1.9934090581        5.6452461573       -4.7279423373
 C         2.6316631268        4.3666298465       -4.0187983559
 O         4.1174427443        6.6980264695       -2.8068398711
 O         0.8492008216        5.6839211357       -5.1509134880
 C         2.3720108031        7.9056176660       -5.8703735601
 C         4.2590859142        6.3700925998       -5.6509567497
 C         2.1302918501        3.1483981226       -4.7711025160
 C         2.5741464196        1.7710083515       -4.0251915306
 C         2.1442089468        0.4293124533       -4.7260804172
 C         1.7339232608       -0.6711854037       -3.7292006992
 C         2.7973062532       -1.2927866397       -2.8496441485
 C         1.0323030052        0.5741113179       -5.8058674541
 C         3.5624733744        0.0884780056       -5.5607419894
 O         3.1401681837        1.8662628298       -2.9816921637
 O         0.5643259869       -1.0756214025       -3.6145418573
 C         3.0463509876       -0.6164665780       -1.4155479259
 C         1.9272242761       -0.7448167059       -0.3839527346
 C         2.0525770497        0.3438131840        0.8975858821
 C         0.6643071004        0.6670256548        1.4600882294
 C        -0.1057055428        1.8411405351        0.7907641717
 O         1.0554059633       -1.6042658659       -0.4368257241
 O         0.1661645468        0.0654204980        2.3618296105
 C         2.8331400149       -0.2386109005        2.1559070032
 C         2.7936781578        1.7123247528        0.5136980428
 C        -1.5748994398        2.0899903346        1.3173052519
 C        -2.5695241392        0.9750166974        1.1359671948
 C        -4.0552436632        1.2671249897        1.8166982648
 C        -5.2733125935        0.4874426198        1.0837737627
 C        -5.3679654829       -0.9720616097        1.2362394483
 C        -3.7996944831        0.8247919907        3.2988031416
 C        -4.3074247737        2.7512950712        1.8841779213
 O        -2.3244837064       -0.0528436718        0.5227705636
 O        -5.9512539398        1.1252358221        0.3347099768
 C        -5.9891532597       -1.6365060249       -0.0438988192
 C        -6.0788496945       -3.1283601732       -0.0283453400
 C        -4.6278278158       -3.9951061268       -0.2914453351
 C        -3.5755906058       -3.6083164628        0.8065605844
 C        -3.6627459125       -3.9678858632        2.2910785727
 O        -7.1001458467       -3.7638007750        0.1744430556
 O        -2.6111353361       -3.0061020419        0.3525929593
 C        -5.1047820287       -5.4825772669       -0.0232830308
 C        -4.1139756894       -3.9212386642       -1.8010210930
 C        -2.9917687788       -2.9958436302        3.2171063327
 C        -1.5947704534       -3.4907590284        3.8368201181
 C        -1.4507871823       -4.6172169493        4.9948335688
 C        -0.7497905377       -5.9085391072        4.1122899830
 C        -1.3920284162       -7.3334544676        4.0790829094
 C        -0.4344108974       -4.1335001763        6.0629283072
 C        -2.8706450610       -4.9165407327        5.6783746846
 O        -0.5440851025       -3.1227835339        3.3442335709
 O         0.2344282152       -5.7013532597        3.4912346711
 C        -1.0168739668       -8.1711296306        2.8744263152
 C        -1.9818732962       -7.8283240239        1.6495603034
 C        -1.4538684604       -8.0495203748        0.2081988575
 C        -2.7241111996       -8.7819853466       -0.4399113075
 C        -2.9148262290      -10.2593148351       -0.2856440679
 O        -3.0584953474       -7.3438503140        1.8611570325
 O        -3.6276881987       -8.0966449904       -0.9064412850
 C        -1.2166769944       -6.7988210203       -0.6586303767
 C        -0.1917781342       -8.8662182317        0.0684393474
 H         5.4748842032        4.7455981501       -0.4375811825
 H         5.2697413349        6.4527881146       -0.9863530504
 H         6.3660141656        6.0069433179        0.3492437971
 H         3.1673645945        9.7809066638       -0.9532682173
 H         4.4471479712        8.7850526564       -1.3689235734
 H         1.6381494273        6.6915534047        1.6669018594
 H         2.3216753585        8.1225350327        2.4860358291
 H         3.0043570655        6.6410862379        2.9067314544
 H         5.4802914916        8.3094646916        0.4299044870
 H         4.2553216281        9.3516927170        1.2504903846
 H         5.2796382743        8.0421441457        2.1895107832
 H         1.6310643765        8.5876570534       -2.5943410490
 H         2.7600385600        9.5403462074       -3.3471814472
 H         3.7098393790        4.3711719743       -3.9083070169
 H         2.2369778440        4.4379836236       -2.9775986521
 H         1.5852024949        8.4398394437       -5.4097141245
 H         2.0442733944        7.3978453212       -6.8439335350
 H         3.0790938216        8.5868842475       -6.1523377766
 H         5.0749684555        6.4261845586       -4.9685320284
 H         4.1356245612        5.3307370585       -5.9565819729
 H         4.5250884012        6.8856712575       -6.4981545277
 H         2.4636516125        3.1243030861       -5.7759982902
 H         1.0970601481        3.2509776481       -4.7824369466
 H         2.5034004166       -2.2999258868       -2.6735100820
 H         3.6085552718       -1.3727445146       -3.5294189867
 H         0.8350138205       -0.3407848343       -6.3656970231
 H         1.2775745069        1.4027076498       -6.4613695335
 H         0.2438406931        0.9068170924       -5.1447853801
 H         4.4168218394        0.0590113213       -4.9528708045
 H         3.3053115552       -0.7834483441       -6.0703049848
 H         3.7413977208        0.8580148676       -6.3114841209
 H         3.9158592686       -1.0551211494       -0.9778397862
 H         3.4132816707        0.3866410348       -1.4756961071
 H         0.4925361617        2.7646254004        0.8433123145
 H        -0.1268410516        1.6458439041       -0.2834725557
 H         3.9115910667       -0.2738469938        1.9543324352
 H         2.3419437360       -1.2160176662        2.3843159830
 H         2.7502097506        0.3391894764        3.0937014397
 H         2.1199106703        2.2379126398       -0.1590461090
 H         2.9106257717        2.3182820633        1.4387463383
 H         3.7690703074        1.5268249988        0.0759208252
 H        -1.9366589415        2.9435649577        0.7572767493
 H        -1.5200509339        2.5253209305        2.3489182538
 H        -4.3404867296       -1.3518186262        1.4157391413
 H        -5.8880173569       -1.3507993037        2.1061172068
 H        -3.2961256937        1.5783129082        3.9139581444
 H        -3.4388372815       -0.1828425410        3.4790441317
 H        -4.7858545565        0.6709169729        3.7582862320
 H        -3.6189542927        3.3327008613        2.4612010623
 H        -4.1994434928        3.2230938323        0.8791512548
 H        -5.3823873746        2.9561604915        2.1916377521
 H        -6.9502878726       -1.1405283443       -0.2909244044
 H        -5.2714635210       -1.2876561728       -0.8852115669
 H        -4.7487318935       -4.1771346672        2.6052003635
 H        -3.1461281604       -4.9336174291        2.3151275810
 H        -5.8422868395       -5.8379954293       -0.6763005068
 H        -5.4604705870       -5.7262271570        0.9530260941
 H        -4.2924001104       -6.2057758956       -0.2478521056
 H        -3.9814622965       -2.9636499230       -2.1952086580
 H        -3.1069572247       -4.1521449578       -1.5989383020
 H        -4.6162957145       -4.5588890952       -2.5450048505
 H        -3.7486302758       -2.6506631532        4.0027071886
 H        -2.7364234248       -2.0438477035        2.6420209107
 H        -0.9705892263       -7.7434798002        4.9803740834
 H        -2.4240797154       -7.1191406492        4.2729705373
 H        -0.1792754467       -4.9181372044        6.6962750425
 H        -0.9877252428       -3.3560661624        6.5565206939
 H         0.4240228720       -3.6489648811        5.6428152531
 H        -3.4299897521       -5.6115262710        5.0363179289
 H        -2.6640025468       -5.3233119661        6.6740048271
 H        -3.4804131008       -3.9521681219        5.7159647725
 H        -0.1431908192       -7.7662700459        2.5174148788
 H        -1.0184352395       -9.2252910375        3.1305641079
 H        -3.3841498477      -10.7141595238       -1.1394834636
 H        -1.9880634818      -10.8468963337       -0.0622673127
 H        -3.5573755356      -10.4495934911        0.5889232886
 H        -1.0629613073       -7.1498268187       -1.6772196689
 H        -0.3198416815       -6.1951168865       -0.3575083083
 H        -2.1682904238       -6.2864381584       -0.7190032072
 H         0.5777144360       -8.2531792182       -0.2736943932
 H         0.0185158332       -9.3881995823        0.9566609278
 H        -0.3713679410       -9.6367728664       -0.6590789157
 Na       -0.5350608662       -2.0640502498        1.2623676802
