155

 C         5.3636331238        6.0613390982        0.6777999454
 C         4.1101779173        6.0265167644        1.5909414883
 C         3.0247202252        7.2710432136        1.3651036835
 C         2.7956809289        7.3600101878       -0.1943206912
 C         3.4935963389        8.5075235658       -1.0831980147
 C         1.6326378330        6.8762631206        1.9618510753
 C         3.7186706310        8.6612461279        1.9926551611
 O         3.9858294643        5.1393980929        2.3882552588
 O         2.0898060494        6.5707777086       -0.7620574787
 C         3.0569801237        8.6399082762       -2.5169301830
 C         3.6213149305        7.4649521095       -3.4992772099
 C         2.9416017244        7.1727065233       -4.9196859427
 C         2.0494246756        5.8771916749       -4.9043241896
 C         2.5916661925        4.6178037022       -4.1895282241
 O         4.5425874891        6.8002028606       -3.1340549729
 O         1.0395703977        5.8359423377       -5.5450070109
 C         2.1248382954        8.2430707013       -5.5317952728
 C         4.0576883106        6.8245303904       -5.9518016763
 C         1.9575914902        3.3610364871       -4.5520484278
 C         2.2348697922        2.1531130880       -3.7294152727
 C         2.2384372305        0.7543803681       -4.4814432913
 C         1.8601556419       -0.3122747420       -3.4108810149
 C         2.9198300645       -0.9865471766       -2.5567962256
 C         1.2318201801        0.6416750467       -5.6918656009
 C         3.6464069644        0.4749340435       -5.0648186727
 O         2.3648332737        2.1026298978       -2.5475954239
 O         0.7191969922       -0.4506954466       -3.0878050064
 C         2.9934667387       -0.5382267093       -1.0641293806
 C         1.8587346771       -0.4625605466       -0.1171122206
 C         1.9062871420        0.5522794844        1.0775443698
 C         0.4276076996        0.8177489930        1.6078552413
 C        -0.4614060244        1.5169142625        0.5884583477
 O         0.9957551958       -1.3416465836       -0.0704600931
 O         0.1566412450        0.4090654580        2.6953947246
 C         2.6525245234       -0.1608559678        2.1782605834
 C         2.6378121952        1.9405294048        0.8139244740
 C        -1.7828312765        1.9997813983        1.1179996141
 C        -2.8002922715        0.8541393957        1.2699033145
 C        -4.3450867744        1.4292770152        1.4818723552
 C        -5.2967917569        0.6464492886        0.5069662627
 C        -5.6142189964       -0.8108223594        0.7376478233
 C        -4.8234879753        0.9368548211        2.8679036834
 C        -4.3978141365        2.9539166729        1.3067663873
 O        -2.5466129962       -0.3374982463        1.2366356882
 O        -5.8274970279        1.2004875115       -0.4512138674
 C        -5.2735784151       -1.6977620393       -0.5582711189
 C        -5.6870619817       -3.1152584839        0.0639324377
 C        -4.6416455214       -4.2789864758       -0.4297323522
 C        -3.4253144067       -3.9463424723        0.5551835709
 C        -3.5977953685       -4.2873837876        2.0090323080
 O        -6.7164257193       -3.2187973499        0.6851812181
 O        -2.4043614580       -3.5150644029        0.0619086650
 C        -5.2440730212       -5.7592278673       -0.1160538659
 C        -4.4222630988       -4.1864989303       -1.8612585099
 C        -3.1289683813       -3.2326356739        2.9692650486
 C        -1.7173842843       -3.6740140529        3.3766059571
 C        -1.4777967990       -4.7309527805        4.4662431978
 C        -1.0039179287       -5.9456163457        3.6511788454
 C        -1.4545745766       -7.4150770580        3.9704118473
 C        -0.3126116506       -4.2685581333        5.2645210037
 C        -2.6346325791       -5.1273797666        5.3350566158
 O        -0.7128812577       -3.2084015750        2.7968122156
 O        -0.2393615979       -5.8143317760        2.6914994706
 C        -0.9596888435       -8.3413814304        2.8886090807
 C        -1.5564366979       -7.9416590923        1.5041615614
 C        -0.8705243081       -8.4282887210        0.2129712329
 C        -2.0443938273       -9.2860880892       -0.4369414329
 C        -1.9158255871      -10.8569748005       -0.5500116368
 O        -2.5556731134       -7.2952489889        1.5257226869
 O        -3.0837482155       -8.7015039934       -0.6794462289
 C        -0.4922320519       -7.3467662946       -0.7624646404
 C         0.3431511438       -9.2371564223        0.5464850107
 H         6.1417820215        5.3971492683        0.8893692686
 H         4.9663106166        6.0268573102       -0.3548441458
 H         5.7768329010        7.0980342419        0.8384570231
 H         3.2854845477        9.4527619243       -0.5685258476
 H         4.5930159821        8.2586924259       -0.9869288185
 H         0.9825684677        6.3899013756        1.2541868511
 H         1.0964126361        7.8393770553        2.1729794849
 H         1.7442876214        6.2447683141        2.7941469601
 H         4.4672584595        8.9327611641        1.2809677927
 H         2.9113026831        9.3913467477        2.0526334898
 H         4.0547778264        8.4991273584        2.9673153188
 H         1.9868621294        8.8376480006       -2.6501809511
 H         3.6356651766        9.5854417727       -2.8392811406
 H         3.6452539571        4.5897386145       -4.4712021550
 H         2.5748620147        4.7293473661       -3.0522003805
 H         1.2879387245        8.5847010478       -4.9202875463
 H         1.6245893226        7.7934909819       -6.3163636013
 H         2.8404719971        9.0516692364       -5.9355764013
 H         4.4458027189        7.7127892590       -6.4917017176
 H         4.9288647572        6.5272158844       -5.2518425554
 H         3.8495962472        5.9860264115       -6.6855575409
 H         2.2277466537        3.1009878481       -5.6096501272
 H         0.8506549278        3.4909112988       -4.6634541210
 H         2.6019608690       -2.0737323527       -2.6108107535
 H         3.9315244472       -0.7860775263       -3.0805649016
 H         1.4919040130       -0.2374327935       -6.3425169106
 H         1.3929386138        1.6370065684       -6.2431533674
 H         0.2078597512        0.4344583438       -5.3293112182
 H         4.4599211236        0.5582141376       -4.3003726686
 H         3.7580409676       -0.5605705600       -5.4619314000
 H         3.7723818868        1.1461142510       -5.9720487342
 H         3.6405843383       -1.3445451545       -0.6429205379
 H         3.5298379285        0.4876469271       -1.0277036014
 H         0.1314985172        2.4164498937        0.2986692621
 H        -0.6510118226        0.9075377858       -0.3060432663
 H         3.6844894844       -0.3087739607        1.8688868187
 H         2.3777055115       -1.1987957785        2.1793417886
 H         2.4806153555        0.2950663699        3.1146970984
 H         2.3032657961        2.2204852210       -0.1666786514
 H         2.2230857991        2.5973978570        1.6159266215
 H         3.6750026925        1.8636736397        0.8954370957
 H        -1.9654437557        2.7548352379        0.3975176174
 H        -1.6385143825        2.5008439556        2.0736878334
 H        -5.2304382271       -1.3612044556        1.5866655425
 H        -6.6890213522       -0.7208135367        0.8123996334
 H        -4.6534343674        1.6119490143        3.7427180507
 H        -4.4164566385       -0.0067554238        3.1223722003
 H        -5.8992075123        0.9311015891        2.8085840574
 H        -3.9028027618        3.4560731644        2.0938901876
 H        -4.1247152062        3.2725629722        0.3144323702
 H        -5.4002359621        3.2574345009        1.4713652822
 H        -5.8205230268       -1.2485150485       -1.3313826748
 H        -4.2116855213       -1.5542792741       -0.7950835038
 H        -4.6771932264       -4.5462416135        2.1154355749
 H        -3.1904348481       -5.2228777927        2.3008439169
 H        -6.0238139577       -6.0952059187       -0.8432089299
 H        -5.6809449213       -5.8190230809        0.8642348264
 H        -4.5554671791       -6.6304463226       -0.0759787719
 H        -4.1563786847       -3.1547106444       -2.1865165710
 H        -3.5736709574       -4.8980764809       -2.1239501858
 H        -5.1713143320       -4.6174373293       -2.5127055533
 H        -3.7599035493       -3.3559921677        3.7970262048
 H        -3.1233349103       -2.2365196422        2.6234762159
 H        -1.1142056757       -7.8177635060        4.9442907628
 H        -2.5446475052       -7.4807607968        4.1896392458
 H        -0.0415210727       -4.8656414362        6.1648062019
 H        -0.6625594994       -3.3147671877        5.7839378583
 H         0.6078122028       -4.0961787257        4.6419904832
 H        -3.5588648005       -5.2895312176        4.8684734343
 H        -2.4684532497       -6.0338532893        5.8423949723
 H        -2.8174748979       -4.3562607298        6.1533864722
 H         0.0992496705       -8.3755457241        2.6886395151
 H        -1.1870326185       -9.4109628445        3.2235647768
 H        -2.7591820825      -11.1794421916       -1.1076254078
 H        -1.0496189501      -11.1000601652       -1.1923431858
 H        -1.8184830022      -11.4792775240        0.3612554330
 H        -0.3608860904       -7.7970057909       -1.7331090281
 H         0.5101971988       -6.9297055688       -0.4379208381
 H        -1.1683202478       -6.5445248831       -0.7398332278
 H         1.0915478846       -8.8178217277        1.3182436747
 H        -0.0316643430      -10.1470462063        1.0606913296
 H         0.8953550500       -9.5157855912       -0.3260390769
 Na       -0.8765295891       -2.0547948936        0.9605524265
