155

 C         5.3527793671        6.2990288376        1.5426966904
 C         3.8540459998        6.1193391278        1.9528525935
 C         2.6902448699        7.0310694093        1.5116358221
 C         2.7746997245        7.0753122958       -0.1156086177
 C         3.3871697537        8.3167537844       -0.9623372715
 C         1.2901281217        6.5282104034        2.0140907738
 C         3.0439545458        8.4942716592        2.0992224206
 O         3.5436378783        5.2293965685        2.6953653713
 O         2.6631933323        6.0372923535       -0.7577656903
 C         2.7324456023        8.3003697972       -2.3735401472
 C         3.5616400724        7.5774999753       -3.4224032765
 C         2.9988086303        7.3847469087       -4.8844039636
 C         2.0769710510        6.1063653883       -4.8154226844
 C         2.7404113162        4.8974216602       -4.1114035210
 O         4.6484070773        7.1102529276       -3.1982279692
 O         0.9784163867        6.0203152786       -5.2610828298
 C         2.3244028324        8.6401386225       -5.5218123843
 C         4.2306024103        7.0478405322       -5.7099028459
 C         2.0931144599        3.5483512147       -4.6910076370
 C         2.0219049481        2.4087024947       -3.5145915742
 C         2.1294462473        0.8957919489       -4.0136485427
 C         1.4425435127       -0.0774692411       -2.9540389688
 C         2.3165192228       -1.1669557555       -2.0987123676
 C         1.3893220106        0.7241702783       -5.4460551688
 C         3.6360376811        0.5769244006       -4.1693005749
 O         1.9064300498        2.8200182618       -2.4013213284
 O         0.2464881334       -0.0405293011       -2.8303815737
 C         2.8507148270       -0.4793277517       -0.7905496411
 C         1.7719622676       -0.6195248223        0.2465190262
 C         1.6142110960        0.5747257809        1.3634965328
 C         0.0066924387        0.7575493005        1.4168965563
 C        -0.6775866328        1.3941682760        0.1866417195
 O         0.9448176473       -1.5006261222        0.0647250821
 O        -0.5836765877        0.6062677027        2.4441390258
 C         2.2113303247       -0.1092010998        2.6214025373
 C         2.3268323101        1.8707068371        1.0538334581
 C        -2.1263404082        1.8964773532        0.4167885951
 C        -3.1048717879        0.9918906273        1.0376318140
 C        -4.5686349518        1.6005292411        1.0944409739
 C        -5.2170991188        0.8053132054       -0.1124305696
 C        -5.9662096236       -0.5172231565        0.1006566282
 C        -5.1878524941        1.1633264726        2.5044087467
 C        -4.6336684743        3.0945832654        1.0454955472
 O        -3.0163861075       -0.2033380604        1.3458455964
 O        -4.9457868077        1.1772692981       -1.2484712597
 C        -5.3488267986       -1.5872710657       -0.7604551329
 C        -5.6770239586       -3.0569484080       -0.2684762173
 C        -4.5551792855       -4.1771661274       -0.5566974902
 C        -3.4085681417       -3.7327484160        0.3965174314
 C        -3.2354443714       -4.5012503366        1.7301884465
 O        -6.6220561086       -3.4245246326        0.3805507278
 O        -2.6558666514       -2.8175169124        0.0963258673
 C        -5.1110320163       -5.5351624650       -0.4327604187
 C        -4.0063972928       -3.8954828824       -2.0265585661
 C        -2.8327803803       -3.6605302942        2.9126220080
 C        -1.4168138134       -3.7879884833        3.3159676724
 C        -0.9345266612       -4.8241979736        4.3248232793
 C        -0.6122783655       -6.1452227422        3.5041767332
 C        -1.3678172086       -7.4337514288        3.8376941977
 C         0.3837225219       -4.4264879595        4.8594454034
 C        -1.9535112299       -5.0123789990        5.4466057177
 O        -0.6165596432       -2.9747089255        2.9166027486
 O         0.4566330569       -6.2259407036        2.8929305863
 C        -0.9627738505       -8.5900521434        2.8579616281
 C        -1.3970487505       -8.2626708266        1.3781485499
 C        -0.5047993538       -9.0226361570        0.2322092276
 C        -1.6683819384       -9.7874286637       -0.5732340701
 C        -1.5021754470      -11.3183353197       -0.7974470659
 O        -2.2672929132       -7.4328031183        1.2140395422
 O        -2.5773546823       -9.2321830819       -1.1089750324
 C         0.0500618591       -8.0169516893       -0.7747285970
 C         0.7240018461       -9.9100170173        0.6974189827
 H         5.9977039611        5.4628767348        1.7617554674
 H         5.2698226703        6.2781250590        0.4476947388
 H         5.7266955553        7.2294341879        1.8339688343
 H         3.1756329149        9.2671028414       -0.4471957460
 H         4.4102156520        8.0693334539       -1.1601100370
 H         1.4519922566        5.4349430127        2.1681900875
 H         0.5279274881        6.7006422473        1.3250425610
 H         0.9859745028        7.0416533279        2.9225424197
 H         4.0836320088        8.6683588618        2.0383515762
 H         2.4996289239        9.2812520462        1.7305627013
 H         2.9679170891        8.3249814865        3.1664597815
 H         1.6702439131        8.0473200964       -2.4794541530
 H         2.9662947232        9.3030834128       -2.6898271395
 H         3.8734448832        5.0117573423       -4.0468594947
 H         2.2966476212        4.9792258186       -3.0988151939
 H         1.7037319407        9.1264731783       -4.8105293651
 H         1.7812318535        8.2751414676       -6.4212282918
 H         3.0211662541        9.3947455517       -5.8288421470
 H         4.9789144567        7.8616488727       -5.6578260613
 H         4.6086681423        5.9887656814       -5.5806986380
 H         3.8955826074        7.0731640739       -6.7044180745
 H         2.7571147467        3.2037269127       -5.4767054979
 H         1.1348617743        3.8072953999       -5.1431684596
 H         1.6863603589       -2.0379153606       -1.9240042678
 H         3.1857200440       -1.4876518105       -2.6828324165
 H         1.6347304630       -0.2833771459       -5.8601960754
 H         1.5611676633        1.5185790688       -6.1710291318
 H         0.3592773141        0.9907392307       -5.1945279694
 H         4.2458433547        0.7473136887       -3.2564611151
 H         3.7567849118       -0.4457908269       -4.5727170372
 H         4.1630008071        1.2538733203       -4.9023428077
 H         3.6253404859       -1.1890192038       -0.5356368787
 H         3.1136347387        0.5080533304       -1.0199525003
 H         0.0144071488        2.1991880880       -0.0489716193
 H        -0.6342578857        0.6970020257       -0.6691572777
 H         3.2689545575        0.0442387433        2.6462332364
 H         1.9375732385       -1.1542475407        2.6098788031
 H         1.8355601417        0.2089048114        3.5814712981
 H         2.0705845027        2.2313241944        0.0662627040
 H         2.0673014952        2.5594759336        1.8451619951
 H         3.4022421071        1.6314185388        1.1342639078
 H        -2.5668476721        2.0990286389       -0.5680664398
 H        -1.9556058138        2.8827628835        0.8539729756
 H        -5.7606107941       -0.9657110210        1.0747226319
 H        -6.9993469302       -0.5574957118       -0.0033512915
 H        -4.5012395274        1.5716156442        3.1731574227
 H        -5.3038034942        0.1091562873        2.6208759709
 H        -6.1561761396        1.5839668842        2.6470871789
 H        -4.0620908689        3.5262426290        1.7939277667
 H        -4.1907161491        3.3749352168        0.1083151871
 H        -5.6942193486        3.3775866046        0.9901982360
 H        -5.8421972207       -1.6162370333       -1.7598671848
 H        -4.2178527246       -1.3674348140       -0.8081905398
 H        -4.1361461335       -5.0793121125        1.9112611227
 H        -2.4701435250       -5.2797696871        1.4227642037
 H        -5.9815294543       -5.5191825450       -1.0443343018
 H        -5.3902670318       -5.9375462808        0.5391296585
 H        -4.4310342915       -6.3162179583       -0.8982815260
 H        -3.1573420140       -3.1984287130       -1.9243367401
 H        -3.6386217966       -4.7983129871       -2.5679419568
 H        -4.6958202158       -3.2982082311       -2.7324366522
 H        -3.4220462300       -4.0045765339        3.7703970242
 H        -3.1097603594       -2.6158670429        2.7002878116
 H        -1.0152882840       -7.7721036020        4.8148915077
 H        -2.4123103003       -7.2701128491        3.9463312044
 H         0.8394812661       -5.3588995346        5.2797466110
 H         0.3467675968       -3.7050145401        5.7386838581
 H         1.1783879804       -4.0337243730        4.1436318468
 H        -2.9221146875       -5.3274209427        5.0918920356
 H        -1.7183482956       -5.6033125922        6.3391813415
 H        -2.2111799664       -4.0346491161        5.9010289160
 H         0.0923845803       -8.8229996706        2.8265629078
 H        -1.3982914286       -9.5070519939        3.2141697754
 H        -2.4639471343      -11.7804384867       -0.8222967085
 H        -1.1700210396      -11.5399938412       -1.8575221046
 H        -0.8542912613      -11.9022926017       -0.0831640928
 H         0.3445012604       -8.4918733476       -1.7062207913
 H         0.9048049624       -7.4674676167       -0.3564530315
 H        -0.7740925058       -7.3447107176       -0.9378768066
 H         1.2834979682       -9.3268457525        1.3734141630
 H         0.3401451577      -10.7744451180        1.1625013767
 H         1.4776693686      -10.3045419227        0.0505447954
 Na       -1.1641027287       -1.6235040692        1.3206702913
