155

 C         4.8013514863        5.9417909041        2.0610008111
 C         3.3406705651        5.6910138980        2.3080907555
 C         2.2816648034        6.7238407889        1.5271805140
 C         2.5256268021        7.0944673913        0.0341819997
 C         1.9246449966        8.4292554974       -0.5840676122
 C         0.7658742902        6.1652322424        1.5943242072
 C         2.2244839866        8.0126687570        2.3851471158
 O         2.9335492545        4.8070384453        3.0274322429
 O         3.1239722403        6.2390649416       -0.5881099904
 C         1.8760651303        8.5641211461       -2.1054636533
 C         3.3425346975        8.2475978731       -2.6680759566
 C         3.4100245011        7.4668395097       -4.0638268787
 C         2.3863984085        6.2985893321       -4.0847408333
 C         2.6378117134        4.9642791262       -3.3198464848
 O         4.3382537208        8.4089759273       -1.9707569709
 O         1.3302173528        6.4123145128       -4.6984814385
 C         2.8673806996        8.4864492823       -5.1875655281
 C         4.8628779093        6.9941440221       -4.2174313841
 C         2.0673031316        3.7083721558       -4.0657354145
 C         1.6594840006        2.5124443335       -3.1496284753
 C         1.9622637339        1.0529761046       -3.6653198495
 C         1.0479279617        0.2167998367       -2.6802003475
 C         1.8667904239       -0.7503015025       -1.7028168644
 C         1.5443299003        0.8590880228       -5.1329918098
 C         3.4710246716        0.9670675209       -3.5542336762
 O         1.1333749983        2.6716236745       -2.0934728523
 O        -0.1647907998        0.2028184123       -2.5459316593
 C         2.2480136636       -0.1947127449       -0.3715285097
 C         1.0907970723       -0.1647704002        0.6076895758
 C         1.0524619032        1.0908719394        1.5526210761
 C        -0.3988466198        1.6528468774        1.4035845845
 C        -1.0579878559        1.7257168413       -0.0742710275
 O         0.3519044525       -1.0987618327        0.7136216471
 O        -0.9516550850        2.2073216887        2.3099327862
 C         1.3297804994        0.6559522703        3.0566983372
 C         1.7901750472        2.3526188302        1.2023930139
 C        -2.4774877718        2.2954510587       -0.0435331457
 C        -3.4889954353        1.3798553157        0.4816538161
 C        -4.9869340080        1.7022179493        0.0878243841
 C        -5.3992386579        0.7939981214       -1.0870162601
 C        -5.6658502470       -0.7159047099       -0.7965381347
 C        -5.7682091132        1.4693021112        1.4371020117
 C        -5.2441406551        3.1562896926       -0.4370730892
 O        -3.3419319186        0.2659204885        0.9978205031
 O        -5.3131308754        1.1570147531       -2.2127225869
 C        -4.4813367589       -1.6254919207       -1.0880288338
 C        -4.7153301497       -3.0937813070       -0.8421808933
 C        -3.6183789378       -4.2110286048       -0.8805551574
 C        -2.8275305574       -4.2151553832        0.4517093211
 C        -2.7629092442       -5.3960967829        1.4777640274
 O        -5.8645913904       -3.4560709435       -0.7444847142
 O        -2.1155416352       -3.2230243393        0.6405301642
 C        -4.2257376022       -5.5700192845       -1.2340388242
 C        -2.6550569703       -3.7742640291       -2.2090631332
 C        -2.8242322324       -4.7602168614        2.8928062738
 C        -1.4833154863       -4.2450762685        3.3745763563
 C        -0.3930475136       -5.1678201453        4.0372164774
 C        -0.1079960454       -6.4181426638        3.0300950035
 C        -0.9638681816       -7.6407574028        3.2623942673
 C         0.9175835678       -4.5620545735        4.3696208356
 C        -1.0011634502       -5.5477979813        5.4390232957
 O        -1.3059258265       -3.0331364297        3.3219272202
 O         0.8418310712       -6.3453002865        2.2879941401
 C        -0.6448125489       -8.9357858650        2.4224544049
 C        -0.5744525813       -8.7441213906        0.9591426893
 C         0.0627177192       -9.8801552927        0.1119053854
 C        -1.1098810410      -10.3907958063       -0.8659210681
 C        -1.7988170310      -11.6824284389       -0.5381955400
 O        -0.9154598519       -7.6458813919        0.4546204014
 O        -1.4590148545       -9.7046606648       -1.8115147618
 C         1.1084965995       -9.2212993295       -0.6697527976
 C         0.6273410075      -11.0789115932        0.9370989952
 H         5.1296822335        5.3980413193        1.1534995414
 H         4.9854112042        7.0351398181        1.7919505131
 H         5.4424125733        5.7211289576        2.9195016258
 H         1.0259686702        8.6876029800       -0.0170962457
 H         2.6138232719        9.2344247883       -0.1687683909
 H         0.4001298792        5.9418999923        0.5494123313
 H         0.2533034511        7.0481782859        1.8804258908
 H         0.4666438364        5.2650855245        2.2469901233
 H         3.1544513697        8.6189541899        2.2876686979
 H         1.3874200567        8.6577012448        2.2338719427
 H         2.3633595812        7.8364313111        3.4961620546
 H         1.0915989150        7.9293800067       -2.6531487035
 H         1.5795205808        9.5820426298       -2.3441001681
 H         3.7541190421        4.8701547795       -3.1645660213
 H         2.1366363178        4.9507528095       -2.2845627781
 H         1.7987550645        8.5768188154       -5.1277118110
 H         3.1166089089        8.2435962188       -6.1861377713
 H         3.2956264754        9.5494225472       -5.0951406143
 H         5.5123956064        7.8568495423       -4.4360544158
 H         5.1370486064        6.2196715922       -3.4313871665
 H         4.9512975410        6.5183423283       -5.1591396234
 H         2.6647475853        3.3928317101       -4.9644514084
 H         1.1350250063        4.0991531411       -4.5375881472
 H         1.3578392215       -1.7019251110       -1.4078265240
 H         2.7898415672       -0.9405343745       -2.2332491611
 H         2.1159499342        0.0289553553       -5.6195088946
 H         1.8666787349        1.7396943425       -5.7278159132
 H         0.4277522927        0.9149467958       -5.3254249000
 H         3.9470824696        1.3182574126       -2.6371458805
 H         3.8816584059       -0.0513290985       -3.8126575752
 H         3.9009610741        1.5727950179       -4.3300577797
 H         2.9750420707       -0.8670518733        0.1033704434
 H         2.9533309459        0.6585560334       -0.3954130495
 H        -0.3786292101        2.4254240640       -0.5915695171
 H        -1.0753209405        0.7709624269       -0.6229044008
 H         2.3537021014        0.3633506649        3.3245592792
 H         0.6993797842       -0.2589546394        3.2582645394
 H         0.8370754930        1.2791773398        3.8409381290
 H         1.4028453750        2.8386340158        0.3173475128
 H         1.7958383736        3.0487361714        2.0093746182
 H         2.8880073966        2.2019932174        0.9867623899
 H        -2.7523858140        2.6845090244       -1.0655313573
 H        -2.3703082281        3.2241477071        0.4984107524
 H        -5.9354542475       -0.9395882246        0.2640404518
 H        -6.4738507972       -1.0811277992       -1.3810229007
 H        -5.3451781634        2.1020396653        2.2313728127
 H        -5.6796978852        0.3689801972        1.7344964216
 H        -6.8830060307        1.6627473218        1.2918537551
 H        -5.0333065314        3.8719582429        0.3588620874
 H        -4.5271450382        3.2548904202       -1.2615239904
 H        -6.2961416908        3.3103508326       -0.7908804261
 H        -4.2949553606       -1.6801841659       -2.1896796033
 H        -3.4613538254       -1.2395032410       -0.8508877457
 H        -3.6310943107       -6.0043595410        1.2811555535
 H        -1.8187588974       -5.9149108571        1.4297825979
 H        -4.6410006394       -5.4622680314       -2.2197800213
 H        -4.9466580585       -5.9022211651       -0.4971167590
 H        -3.2658528187       -6.2079620601       -1.2120136320
 H        -2.0978771669       -2.9377810847       -1.8665860519
 H        -2.0371947097       -4.5982530125       -2.4903291772
 H        -3.2157735150       -3.4710351124       -3.1298476530
 H        -3.2118246918       -5.4412886117        3.5925111677
 H        -3.4965905837       -3.9481492702        2.8610981352
 H        -1.0019947011       -7.8197040096        4.3548520972
 H        -1.9944389388       -7.3081441156        2.9771385999
 H         1.6171057796       -5.3118846679        4.6722852519
 H         0.9160587301       -3.9492480468        5.2399241637
 H         1.3375317617       -4.1175090083        3.4735739173
 H        -0.9908489880       -4.6445608493        6.0337980874
 H        -1.9857434688       -5.9157882087        5.1960323803
 H        -0.2848403444       -6.2904734720        5.8294725593
 H         0.2218102937       -9.3258097875        2.9874864420
 H        -1.3921572177       -9.5920097342        2.6679009745
 H        -2.6752205790      -11.7319896924       -1.0772602978
 H        -1.0926854935      -12.4911234386       -0.7920576007
 H        -2.0782050860      -11.8884803023        0.4943469099
 H         1.6229909197       -9.9897177238       -1.2699592802
 H         1.9630251385       -8.9704019986       -0.0788802484
 H         0.6813705644       -8.3424386441       -1.1550116512
 H         1.1636972411      -10.5846979707        1.7725900104
 H        -0.2257787133      -11.7529196386        1.2106407274
 H         1.3461533336      -11.7730475507        0.4136476754
 Na       -1.6565334179       -1.1450404085        1.6934404164
