155

 C         4.6526877275        5.9533037330        1.8154337831
 C         3.1937201913        5.8383182580        2.2703227056
 C         2.1138422763        6.7692573188        1.7151847250
 C         2.3568743461        7.1142530382        0.1976899265
 C         1.7364713677        8.4978478750       -0.3696952315
 C         0.6913909400        6.0443434724        1.8003365536
 C         2.2533413681        7.9968456683        2.5998757688
 O         2.8547421468        5.0683246120        3.1350485670
 O         2.9080860442        6.3686523576       -0.6148322209
 C         1.8218958497        8.4022140123       -1.8716196832
 C         3.2560470363        8.2103717252       -2.4744082060
 C         3.4242360274        7.4118412106       -3.9195942552
 C         2.3655572160        6.2562977203       -4.0010296119
 C         2.6888500511        4.9154707900       -3.3158615474
 O         4.2567106703        8.6341354704       -2.0047020387
 O         1.3311887866        6.4191594733       -4.5522180219
 C         3.2651230345        8.3553542836       -5.1060682989
 C         4.9554360558        7.0117583639       -4.0792289993
 C         2.0978305088        3.8011921462       -4.1213703525
 C         1.7205534577        2.6683930057       -3.1679285047
 C         1.8703157025        1.0994841696       -3.5071437232
 C         1.0130799188        0.1114501541       -2.6725756696
 C         1.7298131844       -0.8417021114       -1.7138388437
 C         1.3187743718        0.8509486037       -4.9932872314
 C         3.3701685630        0.8181507870       -3.4785991361
 O         1.3568695866        2.9791902358       -2.0082617224
 O        -0.1781940244        0.1020744890       -2.8703294954
 C         2.3197081365       -0.1405886799       -0.4016623407
 C         1.1797493345        0.0610504671        0.6739400236
 C         0.9018542909        1.2060386035        1.6377227753
 C        -0.6519957645        1.7113226912        1.3620116918
 C        -1.0814818760        1.7210038278       -0.0792467368
 O         0.5348012752       -1.0048890428        0.8492994270
 O        -1.3564220916        1.9794802802        2.3415111393
 C         0.9806722009        0.8399987219        3.1270657406
 C         1.9859298668        2.3348726840        1.3881834970
 C        -2.5030581346        2.2424730219       -0.2841365453
 C        -3.5525114032        1.2718243613        0.3315287673
 C        -4.9745852870        1.7059416274        0.0581904984
 C        -5.3253302771        0.6031693248       -1.0299653683
 C        -5.5346961936       -0.8587498338       -0.6166231129
 C        -5.9477207536        1.4954366205        1.2805452146
 C        -5.2038432468        3.1537674899       -0.3129332342
 O        -3.1926149218        0.2623112933        0.9587146878
 O        -5.2627996098        0.9599765356       -2.1907206482
 C        -4.3260654452       -1.7340114904       -1.1738335802
 C        -4.6455955782       -3.2281452699       -1.0932581922
 C        -3.4586867179       -4.2187624325       -1.1449740638
 C        -2.8418678221       -3.9842412666        0.2362616831
 C        -2.8311313092       -5.2140152895        1.2474559189
 O        -5.7721585278       -3.6184689767       -0.9492131293
 O        -2.1777421764       -2.9993195486        0.4061133651
 C        -4.0077291751       -5.6839219973       -1.3309357718
 C        -2.2740329225       -3.9911321838       -2.1246577035
 C        -2.7140549204       -4.8219871425        2.7538814493
 C        -1.4432595229       -4.1818873016        3.2824103844
 C        -0.4644667041       -5.1106183557        4.0039311433
 C        -0.0906113239       -6.4541576254        3.1002186003
 C        -0.9189145086       -7.7760385688        3.3182384152
 C         0.8622585968       -4.2760495461        4.1054409498
 C        -1.0681176338       -5.5955566067        5.3764668814
 O        -1.2730819111       -2.9780573606        3.3441806205
 O         0.6343121898       -6.3052399944        2.1548009555
 C        -0.5469022904       -9.0499435612        2.5129926663
 C        -0.4818860127       -8.8185352498        1.0527792306
 C         0.0976966560       -9.9024647902        0.0804262027
 C        -1.0510789894      -10.2913838435       -0.8143664960
 C        -2.0414562326      -11.5161307487       -0.5052047678
 O        -0.8354264789       -7.7697847292        0.5821211751
 O        -1.2171560263       -9.6838256198       -1.8368126099
 C         1.2359815462       -9.3003762332       -0.8922765597
 C         0.7507307926      -11.0658353746        0.8627995978
 H         4.7304400030        5.9805373957        0.7250668929
 H         5.1626376940        6.8016970139        2.1372434535
 H         5.1538805967        5.0852168215        2.2452733401
 H         0.7585432976        8.7257746431        0.0465164512
 H         2.2860551747        9.3285643952       -0.0389619123
 H         0.2938342801        5.6969263493        0.8847342885
 H        -0.0420858489        6.3936149731        2.5644538540
 H         1.0738932118        5.1874817231        2.2987363857
 H         3.2313855224        8.2931597728        2.8116841713
 H         1.6513856406        8.8496900015        2.2962067923
 H         1.8965002825        7.8184284784        3.5654702322
 H         1.2088983695        7.6276806951       -2.2166222527
 H         1.4712469599        9.3676806692       -2.3012860222
 H         3.7402715705        4.7621179151       -3.1975242889
 H         2.2495526617        4.8632670237       -2.3381380984
 H         2.4969703807        9.1223335532       -4.9479815473
 H         3.0437057100        7.8028875562       -6.0824991705
 H         4.0763099079        8.9306698749       -5.2464536914
 H         5.5592946906        7.9108815671       -3.9810784639
 H         5.1718810383        6.3409213898       -3.3074800637
 H         5.2729266434        6.5785588750       -5.0711218456
 H         2.7428793407        3.4756197035       -4.9153473498
 H         1.2256010962        4.1819681773       -4.6665251165
 H         0.9230262150       -1.3957988002       -1.3007222709
 H         2.5064338239       -1.3789267266       -2.2337332803
 H         1.5486891865       -0.1723269128       -5.2246813446
 H         1.7602187861        1.3698808483       -5.8725991231
 H         0.2970031329        1.1590898482       -5.0350383382
 H         3.7351573933        1.0591360045       -2.4513615207
 H         3.6605895212       -0.1891920865       -3.7898119567
 H         4.0541411251        1.4548146684       -4.0926744418
 H         3.0564625935       -0.6793933465        0.1967743566
 H         2.8825942860        0.7436940904       -0.6561996245
 H        -0.3302944925        2.2904547519       -0.6340732860
 H        -1.0467108645        0.6778509027       -0.3958160241
 H         1.9648622010        1.1485899750        3.4782833725
 H         0.8346397920       -0.1710748314        3.4219271778
 H         0.2340838547        1.3050226428        3.7385938367
 H         1.9710673299        2.6751055210        0.3321489697
 H         1.8984901569        3.2610333194        1.9903983685
 H         2.9635300031        1.9459468045        1.5349783870
 H        -2.5847737922        2.3251166299       -1.3432218469
 H        -2.4507675531        3.3096158298        0.0082267857
 H        -5.7794300848       -1.1528103063        0.3887201495
 H        -6.4543097194       -1.1195958245       -1.2679759324
 H        -6.0786855255        2.4833342416        1.7156197862
 H        -5.4241278636        0.9025614621        2.0018751445
 H        -6.8641933128        0.9817939171        1.1155554060
 H        -4.4791450929        3.7603916773        0.2451523494
 H        -4.9391635535        3.2132572131       -1.3534679506
 H        -6.2094456533        3.4401133056       -0.1991376503
 H        -4.1056841926       -1.4710283478       -2.2048609681
 H        -3.3828951697       -1.5548461091       -0.7668912195
 H        -3.7787386568       -5.8118944423        1.1445377468
 H        -1.9546333924       -5.7790875958        0.8555768536
 H        -4.3107510010       -5.8366364153       -2.3855747546
 H        -4.8938271277       -5.6794185421       -0.6562178728
 H        -3.3133369683       -6.3275438475       -0.9228468205
 H        -1.8042983344       -2.9734612900       -2.2767585317
 H        -1.5091204919       -4.7168496329       -1.6793756475
 H        -2.5975302021       -4.4256786793       -3.0575579362
 H        -2.9445696202       -5.7579233047        3.3684704162
 H        -3.5840827878       -4.0926639797        2.8226940084
 H        -0.8340623809       -7.9052071510        4.3930494085
 H        -1.9351718915       -7.5130634922        3.0999990333
 H         1.5288903022       -4.5787823790        4.9894274364
 H         0.5650219530       -3.2423212740        4.4464691651
 H         1.5048938554       -4.3354872807        3.1939584251
 H        -0.5866400857       -4.8473207791        6.0087640521
 H        -2.1684754406       -5.6469389916        5.3255627141
 H        -0.6277070483       -6.5304217281        5.5708138447
 H         0.3175614788       -9.3776806168        3.0422565651
 H        -1.3000727240       -9.9139513308        2.7112261550
 H        -3.1320858395      -11.1166915474       -0.5346783874
 H        -1.8796503169      -12.3736732490       -1.1722436042
 H        -1.8812285420      -11.9493790245        0.4934985679
 H         1.4032068252       -9.8514515409       -1.7960559041
 H         2.2097987864       -9.3762396837       -0.3922272650
 H         0.9808182401       -8.2471333518       -1.0242568628
 H         1.6963741771      -10.7113341711        1.1829146495
 H         0.1607445128      -11.4471107588        1.6643055481
 H         0.8557142289      -11.8468967531        0.1292930063
 Na       -1.5920418941       -1.2429392437        1.6536256651
