155

 C         2.4328458061        5.9986893913        3.3134196092
 C         1.1851617214        6.8293733409        3.6286707363
 C         0.9017052262        8.2377742264        2.7847470900
 C         0.6804808520        7.6793674577        1.3877517242
 C         0.5386552478        8.8127270059        0.2893814043
 C        -0.3664931794        8.8575379267        3.3407966900
 C         2.2466263064        9.1295393062        2.9671528530
 O         0.4356166177        6.4613444558        4.4898870927
 O         0.5931216063        6.5082064766        1.1288129521
 C         1.1163105817        8.6874548009       -1.1435830295
 C         2.6055840870        8.1483429261       -1.0998850202
 C         3.4801501020        8.1130248347       -2.3581796817
 C         3.2373075094        6.5317129602       -2.8270325244
 C         3.4678668615        5.3352415358       -1.8988957495
 O         3.0300520076        7.4793792939       -0.1403072514
 O         2.7562645815        6.3409968241       -3.9315413236
 C         3.1028076613        8.9378350922       -3.6205675406
 C         4.9377804068        8.4921882471       -1.9282654381
 C         3.4091007613        4.0256997391       -2.6137260094
 C         2.0087194382        3.5317105557       -3.0990493242
 C         1.9214028182        1.9259664937       -3.5322749426
 C         1.4480324344        1.2532154645       -2.2392452265
 C         2.4983202938        0.7404418288       -1.1667886619
 C         0.8928850139        1.8200949768       -4.7012369185
 C         3.3071473320        1.4510945634       -4.0377383954
 O         1.0025511675        4.1950330183       -2.9759303210
 O         0.2885356298        1.0469601822       -2.0030786738
 C         2.3118102635        1.3437240720        0.2744331483
 C         1.1318444572        0.7181839950        1.0135517011
 C         0.0751421804        1.8337662450        1.7318484205
 C        -1.3872144721        1.2430041608        1.4365036754
 C        -1.8270381860        1.5214433753       -0.0561755705
 O         0.8755895128       -0.4276078177        1.1444197564
 O        -2.2034007521        0.8064513659        2.2884822076
 C         0.3416660210        1.8820762368        3.2213443770
 C         0.2150145394        3.1810213014        0.9860229373
 C        -3.3344973723        1.3718369729       -0.3583501552
 C        -3.8513132357       -0.0626047067       -0.1618429844
 C        -5.3276192645       -0.3268219930       -0.7750054270
 C        -5.0960753148       -0.8866860095       -2.2136937569
 C        -4.4330206439       -2.3053415505       -2.3771972151
 C        -6.0027533688       -1.5484562954        0.1306965763
 C        -6.2749227682        0.8767896587       -0.8149597424
 O        -3.2567484860       -1.0391327673        0.2935678852
 O        -5.2579558325       -0.1686542089       -3.1426453694
 C        -2.9589727117       -2.2389525323       -2.7432897582
 C        -2.5028406994       -3.7061103990       -3.0445871660
 C        -0.9866688132       -4.1929208110       -2.5882404611
 C        -0.7085185683       -4.0187661677       -1.0510134804
 C        -1.0422344739       -5.1752471453       -0.0079065894
 O        -3.2459473750       -4.4637516606       -3.5719624197
 O        -0.2340621865       -2.9786344067       -0.6027746986
 C        -0.8365650332       -5.6255522367       -3.1121553814
 C        -0.0656023157       -3.2345656263       -3.3242301319
 C        -2.0924681564       -4.7710522593        1.0792438340
 C        -1.5049478543       -4.6110834347        2.4416193665
 C        -1.3546312969       -5.7637752714        3.4435014267
 C        -0.0384690566       -6.6284056636        3.0532223488
 C         0.0640104796       -8.0491837375        3.4821677285
 C        -0.9435164576       -5.1428827431        4.8326040908
 C        -2.6481889619       -6.5996341033        3.6049680426
 O        -0.9657570704       -3.5239385736        2.7270346358
 O         0.7446786433       -6.2617821115        2.2368611290
 C         0.4386370456       -9.1218944009        2.4403937631
 C        -0.3859023511       -9.0649166173        1.2184188450
 C         0.0169140925      -10.0668960416        0.0399391850
 C        -1.1987607725      -10.6414382498       -0.7243902814
 C        -1.5216061338      -12.0893507989       -0.5121181305
 O        -1.3933311474       -8.3992078314        1.1574831854
 O        -1.9638525071       -9.9454453644       -1.3384816237
 C         0.9464638177       -9.0728765861       -0.9687906108
 C         0.8856360178      -11.2222090467        0.4799744956
 H         2.9443949343        5.7972181971        4.2190816143
 H         2.1075980790        5.1402658859        2.8254954928
 H         3.0621288270        6.5004106762        2.5555029950
 H        -0.5193033670        9.0606345368        0.2085339816
 H         1.0407629575        9.7694076785        0.6830391990
 H        -1.0668998446        8.1831657752        3.8332357446
 H        -0.9152929302        9.3207229687        2.5027379318
 H        -0.2104329378        9.5300248687        4.1354339022
 H         3.0966176073        8.5843001863        2.7196736418
 H         2.1648090642        9.9269572537        2.2040730086
 H         2.1997650246        9.4921625322        3.9399378408
 H         0.5639113962        7.8858807342       -1.6978197826
 H         1.0982074820        9.6642085349       -1.5803473010
 H         4.3754927711        5.3437464643       -1.2359943985
 H         2.6273195081        5.2300509180       -1.1713763576
 H         2.3053103181        8.5482729533       -4.1404259496
 H         3.9937418058        9.0880150190       -4.2448791244
 H         2.7750693548        9.9698076963       -3.2314737930
 H         5.1245347768        9.5419693758       -2.2201719526
 H         4.9984071635        8.4099495098       -0.9061357977
 H         5.7407298786        7.9964951499       -2.4743797875
 H         3.7126369761        3.2095020234       -2.0090666027
 H         4.1380978954        3.9621703003       -3.3848149028
 H         2.4076831276       -0.3153396509       -1.1712665783
 H         3.4655120998        1.0046470285       -1.5141321139
 H         0.8967779204        0.8061803245       -5.1026262229
 H         1.1837369169        2.5881139313       -5.4086525186
 H        -0.1293746759        1.7976311276       -4.4024078864
 H         4.1441632613        1.6492547421       -3.3470333951
 H         3.1406233091        0.4842863373       -4.4508938010
 H         3.4436137195        2.0433306968       -4.9964915519
 H         3.3021443681        1.1785404711        0.7743325747
 H         2.2128788925        2.3927181060        0.2501064595
 H        -1.3489058282        2.4731923544       -0.2374232321
 H        -1.3775786264        0.7709495864       -0.7568891801
 H        -0.6135251989        1.7701662472        3.7881352945
 H         0.8353707952        2.8352004575        3.4256848646
 H         1.1488425634        1.1647943297        3.4508008653
 H         0.0895329904        3.0647211254       -0.0840857951
 H        -0.6462011387        3.8069525242        1.2780406728
 H         1.1197651317        3.6933665177        1.2127462231
 H        -3.4726001544        1.6371060619       -1.4364453780
 H        -3.9631095139        2.0657516863        0.2729657987
 H        -4.4241164774       -2.8607065156       -1.4430638205
 H        -4.9690351149       -2.9214309414       -3.1814778067
 H        -5.3160520513       -1.6703346005        0.9775041594
 H        -6.2062428361       -2.4799006902       -0.4537164781
 H        -7.0009614673       -1.1662396042        0.3501153181
 H        -6.2286793491        1.2007448131        0.2105544582
 H        -5.8325473980        1.6851629743       -1.4256515730
 H        -7.2748853557        0.6905964167       -1.1803969699
 H        -2.9848646673       -1.7490958179       -3.7077366232
 H        -2.3811199762       -1.7235860271       -2.0067475761
 H        -1.3581780157       -6.0906945763       -0.5270614610
 H        -0.1664062530       -5.4541358362        0.5675686872
 H        -1.0487330238       -5.7501740277       -4.2165231020
 H        -1.4821037529       -6.4204300490       -2.6825874332
 H         0.1947273319       -5.8580604194       -3.0544087273
 H        -0.4752128615       -3.0954136247       -4.3201684841
 H         0.0400794141       -2.3194190428       -2.6852831209
 H         0.9450503963       -3.5132340599       -3.3261464552
 H        -2.9156578555       -5.4745010516        1.0118985883
 H        -2.4916175841       -3.7882106251        0.8308323962
 H         0.7647144059       -8.0090172246        4.2209359430
 H        -0.8388139422       -8.3211243191        4.0257015701
 H        -1.0289239000       -5.8711803406        5.7018816052
 H        -1.6088472356       -4.2941252875        5.0840146135
 H         0.1749290214       -4.9561261436        4.8194335900
 H        -2.7771217004       -7.0552732703        4.5750222666
 H        -3.5301208503       -6.0412397253        3.2817594042
 H        -2.7832233340       -7.4128638865        2.9905039238
 H         1.5449283479       -9.0888403662        2.2411756567
 H         0.1714170138      -10.0848982853        2.8213626802
 H        -1.4709499345      -12.2666519676        0.6074222546
 H        -2.6248774620      -12.2736802357       -0.7487142614
 H        -0.8468668001      -12.8704998693       -0.8775137919
 H         0.5613314485       -8.9331428827       -1.9404292992
 H         1.9674879395       -9.5120553564       -1.0899481893
 H         0.9227858571       -8.0492538599       -0.6280118519
 H         1.8156489022      -10.9122748473        0.8176066563
 H         0.5205925139      -11.8492293978        1.2336500460
 H         1.1104793370      -11.8819609429       -0.3481579587
 Na       -0.9677791957       -1.8589625179        1.0530807872
