155

 C         2.1424384595        6.0726095780        3.4724498869
 C         0.8407852066        6.8181989783        3.7484881180
 C         0.7473807697        8.0785968593        2.9013905675
 C         0.4909159949        7.7927735078        1.4219572331
 C         0.4936274187        8.8931962676        0.4606858666
 C        -0.4181553538        9.0785337865        3.3090548154
 C         2.1196802490        8.8561738018        3.1216322650
 O        -0.0517938164        6.5553585681        4.5689561268
 O         0.4516651233        6.6712181875        1.0151017018
 C         1.0163256873        8.4192068518       -0.9000302187
 C         2.5033340511        8.2037710321       -0.8691509990
 C         3.3552975026        8.0176570233       -2.2063845417
 C         3.1709620676        6.5470411156       -2.8343655140
 C         3.4708860772        5.4320440737       -1.6944450373
 O         3.1195402952        8.3096836684        0.1630391472
 O         2.7710728428        6.4012251569       -3.9529085418
 C         2.8735631111        9.1470664857       -3.1287531032
 C         4.8380043675        8.2291027644       -1.9249832294
 C         3.6763892273        3.9687274447       -2.1808971480
 C         2.2931326126        3.4887028512       -2.7931297435
 C         2.0827926802        2.0869383726       -3.3752081730
 C         1.5938425541        1.3778093257       -2.1602695119
 C         2.5472589271        0.7840900922       -1.1124554768
 C         0.9772820868        2.0138288096       -4.4732601819
 C         3.3990548729        1.4805861976       -3.9803669254
 O         1.3879563522        4.2755086878       -2.6917085684
 O         0.4684989313        1.4567129419       -1.7813022262
 C         2.3123032087        1.4647990680        0.2216365986
 C         1.0267198947        0.9330565130        0.8215635551
 C         0.0215928086        1.9350809242        1.5099934471
 C        -1.4055137459        1.3515523322        1.1645309640
 C        -2.0736573239        1.3774158106       -0.2383680717
 O         0.7760234851       -0.2397249524        0.8364444296
 O        -2.0706031385        0.7448429807        2.0376216031
 C         0.3858128667        1.7734557518        3.1578162112
 C         0.1545121719        3.4111521961        1.0802802122
 C        -3.5602151176        1.1052217873       -0.0588405298
 C        -3.9056579007       -0.4186076462       -0.0975541808
 C        -5.3805924020       -0.8764410138       -0.6448061750
 C        -5.0102569223       -1.2369855203       -2.1835139154
 C        -4.3127539547       -2.5633584099       -2.4865280300
 C        -5.9325938813       -2.0290282569        0.1758557251
 C        -6.3519837516        0.3750811207       -0.6286556175
 O        -3.1602030146       -1.3544900079        0.1377960786
 O        -5.1864378927       -0.4443700209       -3.0274344379
 C        -2.8365220724       -2.3984368075       -2.8016832967
 C        -2.0614892946       -3.7297594284       -3.1359718160
 C        -0.5367081376       -3.9398671867       -2.8781263213
 C        -0.6563906558       -3.8367853506       -1.3230070559
 C        -1.1163307213       -5.0368422263       -0.4970904470
 O        -2.6386082792       -4.6928655187       -3.5804151262
 O        -0.4902443369       -2.7556237159       -0.7338938004
 C        -0.0184986359       -5.3206727279       -3.3145586501
 C         0.2655866504       -2.8178872777       -3.5629353934
 C        -2.1074482029       -4.7430887459        0.6022241051
 C        -1.5320283843       -4.5168811270        1.9931717056
 C        -1.4811399552       -5.6679945216        3.1069730955
 C        -0.3765382257       -6.7197631283        2.6728182126
 C        -0.1060345663       -8.0769713082        3.4008843710
 C        -1.0424348191       -5.1331830035        4.4366121412
 C        -2.9072488726       -6.2539221840        3.2008593563
 O        -1.2945472951       -3.4101827996        2.5077407116
 O         0.3505477779       -6.3516538662        1.8102204971
 C         0.5411948495       -9.2043819472        2.5390008518
 C        -0.2723585148       -9.2961392804        1.3097865146
 C         0.2587995029      -10.2813481757        0.0976135652
 C        -1.1303610365      -10.8120634687       -0.4821176775
 C        -1.6987601970      -12.0730004532        0.0324752414
 O        -1.2609128184       -8.6353097584        1.1215116474
 O        -1.7722343473      -10.1184287874       -1.2551677056
 C         0.9457793336       -9.3962232298       -0.8851523344
 C         1.2195023846      -11.4128234757        0.5010347993
 H         1.9325627047        4.9629552625        3.4806858549
 H         2.4616013166        6.4434277378        2.4852013843
 H         2.9818296545        6.2522485472        4.1597505578
 H        -0.5122726475        9.1730946264        0.1166086960
 H         1.0268440087        9.8322530661        0.8812377450
 H        -1.3946348130        8.6251174241        3.1801939987
 H        -0.4626634486       10.1104930638        2.8591154281
 H        -0.2904871880        9.2671837767        4.3561175366
 H         2.8128180086        8.3579537117        2.5063450108
 H         2.0427893571        9.9174078004        2.8316285870
 H         2.3015681068        8.7121155824        4.1418901133
 H         0.5289634505        7.3993262215       -1.0477146538
 H         0.7115629801        9.1633993695       -1.5906262726
 H         4.3137581318        5.7382268526       -1.1001984066
 H         2.5765882579        5.4362738607       -1.1108468428
 H         1.7905487396        9.2618839007       -3.3439542772
 H         3.2883569992        8.8946373964       -4.0848363756
 H         3.1734089043       10.1437734843       -2.7070894211
 H         5.1143452601        9.0641307985       -1.1934895747
 H         5.2808777708        7.3681780750       -1.5025675466
 H         5.3179687090        8.4039820456       -2.9027823172
 H         4.1210243519        3.2915077172       -1.4617783980
 H         4.3907806843        4.0847219329       -2.9771443435
 H         2.3420429688       -0.2835553935       -1.0126631913
 H         3.6090673490        0.7479079443       -1.4034806358
 H         0.5407051177        1.0137665414       -4.6718330001
 H         1.2907010843        2.3491234756       -5.4950057025
 H         0.1466455745        2.6774581720       -4.1042143365
 H         4.2755768162        1.4903791895       -3.2494747781
 H         3.2780987494        0.4575254795       -4.3801434246
 H         3.7497162856        2.0947094602       -4.8743289242
 H         3.1841178479        1.2254414406        0.9757731050
 H         2.2591728903        2.5337300334        0.0351715241
 H        -1.8823975022        2.3390390276       -0.7723642065
 H        -1.5138071338        0.6269879545       -0.8148928648
 H         0.1662901793        2.6189148540        3.8559246078
 H         1.4378965653        1.4170313095        3.1299311318
 H        -0.2196301101        0.9144660224        3.5499182282
 H        -0.2695124215        3.5601070452        0.0697053829
 H        -0.3814996711        4.0444346502        1.7909872246
 H         1.1635055876        3.7284785323        1.0459829476
 H        -4.1952019782        1.6571569896       -0.7626910583
 H        -3.7925345342        1.6221225185        0.8849098928
 H        -4.2778297253       -3.2385617250       -1.6000722285
 H        -4.7858961176       -3.0098191947       -3.4644135575
 H        -5.6150115122       -2.9707784605       -0.3297232215
 H        -7.0605363368       -1.8423288832        0.0102174378
 H        -5.6213714440       -2.0742382673        1.2436477736
 H        -6.3489149771        0.7847523869        0.4099603160
 H        -6.0399242202        1.1502608379       -1.3619458793
 H        -7.3466879834       -0.0076455514       -0.7889567255
 H        -2.7673836913       -1.8945127888       -3.7715114772
 H        -2.4042994581       -1.7618230346       -2.0745018069
 H        -1.4592845559       -5.8558820070       -1.1234948894
 H        -0.1437022655       -5.4323006652       -0.1333889342
 H         0.3664667253       -5.3686797636       -4.3463156319
 H        -0.7100580610       -6.1704420607       -3.1513640633
 H         0.7554567938       -5.5865341736       -2.6369097695
 H         1.3244560385       -3.1509779880       -3.6784793670
 H        -0.2365001944       -2.8397104700       -4.5769822616
 H         0.2550705526       -1.7818670269       -3.1306770098
 H        -2.7655911450       -5.6572967930        0.7197775170
 H        -2.7122231423       -3.9257762042        0.1110723847
 H         0.4849287104       -7.8830244717        4.2459159673
 H        -1.0305104460       -8.5301066600        3.7773784822
 H        -0.7337909292       -6.0451759325        4.9764803899
 H        -1.7836512885       -4.5330991653        4.9106287869
 H        -0.1810952335       -4.4412021261        4.3443320551
 H        -2.9732478327       -6.7607459782        4.1900362213
 H        -3.7860241486       -5.5499536835        3.2498769289
 H        -3.2191548576       -6.9395489957        2.4909448536
 H         1.5832227326       -8.9016499118        2.2256469588
 H         0.6044685396      -10.0713804312        3.1564175234
 H        -1.7302946894      -12.1069716852        1.1262001327
 H        -2.7321850706      -12.1238663925       -0.4222308804
 H        -1.2247130001      -13.0034795098       -0.3366726327
 H         0.9020116186       -8.3448783718       -0.5634806266
 H         0.4139868935       -9.4656108057       -1.8409116647
 H         2.0563455771       -9.5452518254       -1.0065574114
 H         2.1444238719      -11.0497781834        0.8916047312
 H         0.8198392031      -12.1041806021        1.2367438681
 H         1.6175934409      -11.9003272740       -0.3821043850
 Na       -1.3211767772       -1.4760930560        1.2934528693
