155

 C         1.3262205429        5.8578992955        4.2104454767
 C         0.2110049635        6.8420398674        4.0546268404
 C         0.4078808029        8.0024384342        3.1615883173
 C         0.5496516736        7.5141247372        1.6101192719
 C         0.3727673978        8.5666269976        0.4647741779
 C        -0.8652024163        8.8972137571        3.2681801780
 C         1.6672561357        8.9233896148        3.4567787255
 O        -0.7334382557        6.6058988450        4.7368630873
 O         0.8449387271        6.3424579761        1.4102185083
 C         1.2260698005        8.2416112491       -0.7699766376
 C         2.7092101433        8.6665275168       -0.7001520289
 C         3.5153524818        8.6054051195       -2.1762025803
 C         3.4102878585        7.0984549996       -2.6319071743
 C         3.6217514168        6.0590159838       -1.6127039786
 O         3.1870707361        8.9545576233        0.3850200332
 O         3.2154967665        6.8481595377       -3.8141200066
 C         2.9211347585        9.5995848036       -3.2251006274
 C         4.9586822194        9.0796870418       -1.9409437203
 C         3.8648377707        4.5859116404       -2.1080215024
 C         2.5080803394        3.9083708852       -2.3701491893
 C         2.2869510902        2.5001217342       -3.0522363821
 C         1.8921971402        1.5006033962       -1.8872783726
 C         2.9225375857        1.1423758249       -0.7235805738
 C         1.1441095165        2.6264178868       -4.1654255345
 C         3.5682022007        2.0232177573       -3.7424734511
 O         1.4425348055        4.4745556832       -2.1482984038
 O         0.7330322455        1.2301711946       -1.7750149408
 C         2.2618222682        1.4862991766        0.6214732638
 C         0.8543804848        0.9595707329        1.0061169674
 C        -0.3544328484        1.9692530589        1.1744370883
 C        -1.6889151208        1.1744238010        1.0778800593
 C        -2.6097415226        1.0913101153       -0.1125029313
 O         0.7018008819       -0.1926245330        1.3893125671
 O        -2.0478854260        0.4416373399        2.0260134413
 C        -0.0796826298        2.4076665565        2.6095334696
 C        -0.2946905103        3.2972254728        0.4338968462
 C        -4.0191468741        0.5806836783        0.2913002278
 C        -4.2110928814       -0.8295765296        0.0220606512
 C        -5.3464134205       -1.4077242685       -0.8813904759
 C        -4.7308594885       -1.6230771254       -2.3371453228
 C        -3.6586151059       -2.6704623095       -2.5866818498
 C        -5.8844294354       -2.8614262805       -0.4515012980
 C        -6.5117822029       -0.4083020830       -1.0603476835
 O        -3.3707097140       -1.6458259787        0.3426352665
 O        -5.0647564138       -0.8776298070       -3.2871878475
 C        -3.2294416098       -2.9815088619       -3.9852623852
 C        -1.8343028871       -3.8492433610       -3.8601093073
 C        -0.4891714193       -3.3599251818       -3.0665473316
 C        -0.7521573650       -3.3370161334       -1.4380254357
 C        -1.0423128399       -4.6932827344       -0.6882607358
 O        -1.7757266048       -4.9785218976       -4.2414279404
 O        -0.6863642690       -2.3063659437       -0.8462304836
 C         0.6481232601       -4.3205188698       -3.4370862395
 C        -0.1162581117       -1.9723394255       -3.6461206843
 C        -2.0434735864       -4.6212051355        0.4935683135
 C        -1.4027893767       -4.5625544939        1.8685831026
 C        -1.5125035976       -5.8053306897        2.8147463644
 C        -0.2900241997       -6.6476829218        2.5622881673
 C        -0.0152274428       -7.9437111592        3.3968775875
 C        -1.5516673339       -5.3476360201        4.3024059654
 C        -2.8494717517       -6.6212754820        2.4873862910
 O        -0.8254383449       -3.6027213199        2.2540077286
 O         0.4474300492       -6.3700549645        1.5910842099
 C         0.6417542728       -9.0599893504        2.4261782948
 C        -0.2382239078       -9.5854940803        1.2579416771
 C         0.1734298303      -10.6631428057        0.2339209108
 C        -1.0514329509      -11.3933534332       -0.4009942137
 C        -2.2998379567      -11.7159161297        0.4493700611
 O        -1.4354827188       -9.2586978795        1.2910947204
 O        -0.9626051802      -11.5782425947       -1.5929084817
 C         0.8954210813       -9.7172265738       -0.7992248824
 C         1.2377783612      -11.8153376487        0.8362775588
 H         2.2410851580        6.2765315442        3.7982151838
 H         1.6034258334        5.6334314563        5.2163450743
 H         1.0392619025        4.9721331540        3.7744734802
 H        -0.6093619930        8.7010088917        0.1329789709
 H         0.5985647323        9.5134301213        0.9773139745
 H        -1.5636254145        8.3750663503        3.8678345221
 H        -1.3890496371        9.1723220986        2.3087057530
 H        -0.6536558545        9.7793863935        3.8912937274
 H         2.4330514925        8.6013025660        2.7105591697
 H         1.3620727084        9.9287572355        3.2693801112
 H         2.1034852984        8.7449784380        4.4629231676
 H         1.1034830985        7.1185345330       -0.8077997923
 H         0.7332020388        8.5296727780       -1.6398394929
 H         4.4565190041        6.4559333162       -1.0262967219
 H         2.7367353931        5.9531054350       -1.0054220194
 H         1.9334073598        9.2408627456       -3.6050108768
 H         3.6021660133        9.6961222034       -4.0625812368
 H         2.9478566004       10.6048446018       -2.9448308092
 H         5.0304806176        9.7993841861       -1.0968763953
 H         5.5398489369        8.1805461368       -1.6775456639
 H         5.4482362071        9.5306592735       -2.7520568348
 H         4.2342288544        3.9284094857       -1.2391320831
 H         4.5046289998        4.6005022699       -3.0350877833
 H         3.1109910241        0.0450632611       -0.7320386622
 H         3.9481037058        1.6648791762       -0.7015754296
 H         0.6845705892        1.6942479810       -4.4240841791
 H         1.5078041955        3.1573107638       -5.0340894619
 H         0.3600313636        3.3337503854       -3.8776522439
 H         4.4188179285        2.0024236152       -3.0552520346
 H         3.5581173405        0.9995371117       -4.1393293442
 H         3.9100401084        2.5719783546       -4.5749093584
 H         3.0003595560        1.1855972013        1.4396900786
 H         2.3265310647        2.5927234256        0.6507867418
 H        -2.7026132365        2.0690274206       -0.5970099473
 H        -2.1504651949        0.3736288121       -0.8042371521
 H        -0.5226010132        3.3195667614        2.8958988070
 H         0.9581685467        2.5312728370        2.9088308777
 H        -0.4722904807        1.6078636044        3.2389040203
 H        -0.0989897014        3.1666270481       -0.6556479047
 H        -1.2238758404        3.8618543286        0.5367404288
 H         0.5056853790        3.8945575319        0.8904615995
 H        -4.8140174678        1.1690338682       -0.1196388007
 H        -4.1113206562        0.8632628483        1.3040428048
 H        -2.6985516093       -2.2073293141       -2.1197196959
 H        -3.7866349566       -3.5833516690       -1.9461250320
 H        -5.1893247195       -3.4217521240        0.1057158158
 H        -6.1422320187       -3.4925998766       -1.2745984655
 H        -6.8090906336       -2.7475303673        0.1027125308
 H        -6.8395133797       -0.2507479307       -0.0228228992
 H        -6.2638702249        0.4837370206       -1.5858419865
 H        -7.2618046507       -0.8962259896       -1.6051132533
 H        -4.0413343793       -3.5098551376       -4.4697675611
 H        -3.2448785362       -2.0530293737       -4.5126685872
 H        -1.3675947823       -5.3988556377       -1.4253408443
 H        -0.0259298098       -5.0207911512       -0.3628635651
 H         1.0087340178       -4.2445036676       -4.4308074357
 H         0.3066065032       -5.3616272105       -3.4460159800
 H         1.5686053248       -4.2896756813       -2.8158605155
 H        -0.9386840151       -1.3831198190       -4.0653352539
 H         0.4277513138       -1.4049724307       -2.9810274892
 H         0.5501419173       -2.2853221793       -4.4853620562
 H        -2.6692972418       -5.5162784385        0.4316312336
 H        -2.6769702096       -3.7455067041        0.2825117798
 H         0.6245739498       -7.8745212244        4.3572790388
 H        -1.0295374522       -8.4090611421        3.5276677039
 H        -1.6723390477       -6.2646975303        4.9080599583
 H        -2.5076797013       -4.8395330735        4.4504352530
 H        -0.6595501870       -4.7699131249        4.5421242257
 H        -3.0569080715       -7.3806275801        3.2610101903
 H        -3.6548201018       -5.8832696742        2.4607169317
 H        -2.8676701061       -7.2863375419        1.5692106342
 H         1.6413858080       -8.6104769282        2.1670634142
 H         0.9465636615       -9.8469453350        3.1003189728
 H        -2.4388509897      -10.9486858952        1.1508833931
 H        -3.1544746562      -11.7520741835       -0.1500724063
 H        -2.2386654057      -12.7028428529        0.9440338524
 H         1.6089205361       -9.1445649470       -0.1755861617
 H         0.3199919770       -9.0214948703       -1.3233863735
 H         1.3298883876      -10.3454417677       -1.5585006844
 H         2.1510399332      -11.2759339333        1.1575391204
 H         0.8058283648      -12.4419391119        1.6640901223
 H         1.3143196035      -12.4974486684        0.0405656816
 Na       -1.0772278023       -1.5602350824        1.4675317700
