155

 C         2.5688874927       -7.7360822363       -1.8226592201
 C         2.6451200750       -8.4464481423       -0.4773938501
 C         3.6789441047       -7.7259345001        0.6016949349
 C         2.7622372442       -6.5891489296        1.1924511975
 C         2.8022826494       -6.2136550519        2.6906587738
 C         4.3219814978       -8.6367419817        1.6191731631
 C         4.7666168619       -6.8899713712       -0.1342350749
 O         2.0035147637       -9.4036592949       -0.0831066043
 O         2.0522640649       -6.0100836578        0.4594251961
 C         1.8569940012       -5.0246729449        2.8980567951
 C         2.1329595451       -3.8155189552        2.1632889161
 C         1.2837997503       -2.5141653828        2.5942037364
 C         2.4003499097       -1.4687430754        3.2488851479
 C         3.6839722742       -1.0360736419        2.5207956004
 O         3.1244216855       -3.6488641643        1.4810957977
 O         2.2370923582       -1.1606336071        4.4033342897
 C         0.3666798462       -1.9235582711        1.4513869164
 C         0.3034928047       -2.8272363167        3.7536668193
 C         3.9380480756        0.4888601438        2.7809045622
 C         2.8103012184        1.2785119611        2.0658362025
 C         2.1582613990        2.6458120890        2.5729680202
 C         2.3024485780        3.8110373902        1.4804674884
 C         3.1852550044        5.0157168499        1.5538524753
 C         0.6829261569        2.4475759444        2.6884572602
 C         2.7402835760        2.9934382059        3.9116442868
 O         2.3843364873        0.9484793101        0.9316345882
 O         1.6875250556        3.6192848426        0.3982066772
 C         3.7814928198        5.3741749409        0.1778051562
 C         5.0384506799        4.4204519634       -0.1936167458
 C         5.6296513512        4.4205775760       -1.6779956689
 C         5.4492632148        3.1472176173       -2.4922903732
 C         5.9637992082        1.8895170700       -1.7899763231
 O         5.4850217231        3.6726516521        0.6450427967
 O         5.0834777354        3.1279642618       -3.6422016629
 C         5.0461665930        5.5098900499       -2.5760788978
 C         7.1477521933        4.7061994603       -1.5792486773
 C         5.4323114484        0.4828556325       -2.3144680884
 C         3.9570023365        0.5866536126       -2.2966498104
 C         3.0725443292       -0.5211035783       -2.9758241620
 C         1.5591658362        0.0682685198       -3.2203476508
 C         1.3199166997        1.1256729869       -4.3045727683
 C         3.5806082754       -1.0393125933       -4.3813724455
 C         3.0659482647       -1.6639837421       -1.9694602491
 O         3.3356517171        1.3399630533       -1.6036926694
 O         0.7680356176       -0.3894156241       -2.4193636305
 C        -0.0143984161        1.9272072721       -4.0935301995
 C        -0.0507151309        2.8623044577       -2.9817945360
 C        -1.5700094082        3.1460443690       -2.5930526113
 C        -2.0017370145        1.9222142013       -1.6693315427
 C        -3.2931819913        1.2626838796       -1.9721090398
 O         0.9067856604        3.2735513272       -2.3564996815
 O        -1.1435837417        1.4054535204       -0.9440671020
 C        -1.5912325242        4.4224194402       -1.7322040273
 C        -2.4395979971        3.2493425508       -3.9353206005
 C        -4.4262390832        2.1343124601       -1.3605311149
 C        -4.8176373313        1.5480590558        0.0137555005
 C        -6.2863505923        1.9144911210        0.4645857221
 C        -7.3382940534        0.9355017114       -0.2858079607
 C        -7.8112530995       -0.4638466441        0.2238468057
 C        -6.3451777442        1.9237237612        2.0442623127
 C        -6.6587055133        3.3003642702       -0.1010295531
 O        -4.0288221757        0.7578491482        0.5475797559
 O        -7.7623669403        1.3151983906       -1.3770879421
 C        -8.7922314772       -1.2310418136       -0.7418298004
 C       -10.2777890969       -1.4171639036       -0.2554054971
 C       -10.9667571970       -0.3622650872        0.5380063609
 C       -10.6066025508       -0.6068052375        2.0509639361
 C       -11.1735285638       -1.9291943017        2.6044689886
 O       -10.9679350878       -2.3484628197       -0.6663309850
 O        -9.8905089475        0.0901658193        2.7249679563
 C       -10.4888687380        1.0648792830        0.1237738583
 C       -12.4990775536       -0.4074026032        0.4518537205
 H         1.9093904880       -8.1906610549       -2.4957160069
 H         2.2890759142       -6.6684400777       -1.7096961055
 H         3.6312735673       -7.7100910225       -2.1468623222
 H         2.3992133721       -7.0343430957        3.2934092252
 H         3.8849201026       -5.7568606880        2.8139161904
 H         4.8954339877       -9.5218643513        1.2323630296
 H         3.6868639845       -8.9686584066        2.4227279943
 H         5.0164541410       -7.9707955980        2.0449814063
 H         4.4057239407       -6.3656877044       -0.9688836290
 H         5.4557079360       -6.3614393567        0.4900791889
 H         5.5299948453       -7.5450436412       -0.6194842564
 H         0.8410263999       -5.3352497582        2.4934625037
 H         1.8977544017       -4.8024706615        3.9609977686
 H         4.5231273988       -1.6636084025        2.8046690330
 H         3.6633259162       -1.0554332592        1.4424720088
 H        -0.6854476074       -2.0995188503        1.7009919515
 H         0.7196405398       -2.0885914513        0.3874958464
 H         0.6826784226       -0.9169888942        1.3586488394
 H        -0.4529704162       -3.6111095094        3.4357686030
 H         0.8298741526       -3.1283392821        4.6500498463
 H        -0.1716243267       -1.8901184391        3.9294632138
 H         5.0376658480        0.8621028500        2.4669385827
 H         3.8711477266        0.6231704698        3.8521062042
 H         2.6299151295        5.8253707467        2.0149912162
 H         3.9321614887        4.8470110404        2.3381488062
 H         0.2496778932        3.3961645064        2.9886969404
 H         0.4825048143        1.6606243938        3.3887555471
 H         0.3642815033        2.1446392112        1.6240851580
 H         2.2334103462        2.4962623870        4.7230880672
 H         3.7892069384        2.6982911636        4.0518670121
 H         2.5331754860        4.0235649418        4.0945211638
 H         2.9207188659        5.3552216302       -0.5281457921
 H         4.0101626409        6.4384414090        0.0351274227
 H         7.0682996184        1.9063332242       -1.7625158618
 H         5.6237351922        1.9884285403       -0.7800385478
 H         4.9765441573        6.4677650035       -2.0047510914
 H         3.9624095653        5.2606162001       -2.8552145624
 H         5.6961688121        5.7309869926       -3.4415129772
 H         7.6738005447        4.6631715284       -2.5620582563
 H         7.3585554482        5.6403681118       -1.1340123993
 H         7.5819560273        3.8851911531       -1.0618701049
 H         5.7315949538       -0.3441420911       -1.6225644116
 H         5.8403171351        0.2652613903       -3.2954282772
 H         2.1914434725        1.7985410483       -4.3775652673
 H         1.1623691260        0.5704468859       -5.2310336494
 H         4.5463894991       -1.3617095418       -4.3618845807
 H         3.5505952394       -0.2869282462       -5.0914790542
 H         3.0281650493       -1.8859259916       -4.7646624560
 H         3.8406663952       -2.3625388413       -2.1943061576
 H         3.1551136261       -1.3182839344       -0.9548484422
 H         2.1117361614       -2.2885919893       -2.0026446060
 H        -0.0647461114        2.4219244830       -5.1019348785
 H        -0.8691880612        1.2116291871       -4.0273295291
 H        -3.5840357588        1.0631395155       -3.0091854312
 H        -3.3845962692        0.2888008816       -1.5502574404
 H        -1.0107359641        4.2751087594       -0.8604866237
 H        -2.6049000309        4.6108293891       -1.4570427274
 H        -1.1195435610        5.3343466176       -2.1680203716
 H        -3.4726630689        3.3788496268       -3.7136053484
 H        -2.2035924105        4.2454148404       -4.3972489418
 H        -2.1050060119        2.4965591752       -4.6875006466
 H        -5.3134077368        2.0457090743       -1.9178196730
 H        -4.3233502127        3.1759719788       -1.1993987364
 H        -6.9692357617       -1.0930948800        0.4270239304
 H        -8.3507892515       -0.3432546706        1.1748024417
 H        -5.4897580716        2.6104200539        2.2488828932
 H        -5.9823578528        0.9401446816        2.3655737041
 H        -7.2873403823        2.2853497397        2.5526092873
 H        -7.4850507417        3.7524415834        0.4903223119
 H        -5.8461297346        3.9823064217       -0.1296251444
 H        -6.9349594532        3.1509639359       -1.1254814085
 H        -8.8353350881       -0.6845581555       -1.7390726964
 H        -8.3386150544       -2.1449043914       -1.1089013813
 H       -10.6571697817       -2.7546474698        2.1176878047
 H       -10.8749627937       -1.9166277592        3.6722915038
 H       -12.2094501586       -2.0513656459        2.4449621222
 H        -9.5793921911        1.4567173776        0.6675586267
 H       -11.3191738075        1.7548764442        0.3347242183
 H       -10.1298611374        1.0832479722       -0.9245689946
 H       -12.9628197831        0.1742500620        1.2186513310
 H       -12.9361208420       -0.2054444395       -0.5527282188
 H       -12.7554254546       -1.5035820544        0.6230219839
 Na        1.0385963252        1.4351707688       -0.6810386601
