155

 C         1.0332430738        6.1626280109        4.8430899100
 C        -0.0807248832        6.5775392236        3.8783356562
 C         0.0135039437        8.0070142267        3.0723104087
 C         0.4490926305        7.3890032604        1.6769297152
 C         0.0366201199        8.0712232101        0.3553219608
 C        -1.3725206901        8.7243579727        3.0418570446
 C         1.1930037496        8.8049717052        3.6555897086
 O        -1.0884721515        5.9553398006        3.8311555554
 O         1.1961046019        6.4122245905        1.6742163262
 C         1.1481690153        7.7865993108       -0.7090515308
 C         2.4035484314        8.5330067225       -0.3823689208
 C         3.3777448814        8.8427663717       -1.5644456085
 C         3.6625858350        7.4578676348       -2.3728366878
 C         4.7514078016        6.4788813456       -1.7999777513
 O         2.6286364833        9.0485215849        0.7063143537
 O         2.8562752546        7.1267004254       -3.2393454088
 C         2.6490791042        9.8148294445       -2.5730657408
 C         4.6315457544        9.5689320362       -0.9739330680
 C         4.5077308266        5.1323227047       -2.4324207615
 C         3.2988121122        4.3559449787       -1.8825884545
 C         2.7754776155        3.1308806466       -2.5969045170
 C         2.0970596035        2.0992444618       -1.6456095289
 C         2.4698396985        1.9829561944       -0.0084164509
 C         1.7787071906        3.7257442021       -3.6181693900
 C         3.9115904332        2.3616689504       -3.3174105624
 O         2.7582735199        4.6729080599       -0.8282122107
 O         1.1888798009        1.4369869968       -2.0548871496
 C         1.3998493355        2.4670873159        0.8789125555
 C         0.1781400630        1.6259946107        0.9677294716
 C        -1.2086939437        2.4187512638        1.4004941155
 C        -2.4478140939        1.4417360927        1.1743901375
 C        -3.0122369512        1.2213288099       -0.2927669895
 O         0.1388341235        0.4452232817        0.7256064572
 O        -2.9679161367        0.8261871109        2.1118192016
 C        -1.0286182603        2.5940829251        3.0177943698
 C        -1.3333493131        3.7655238580        0.5935656525
 C        -4.4063310998        0.5760774641       -0.4034811984
 C        -4.4044644888       -0.9893846397       -0.4820294553
 C        -5.4542314399       -1.7321183417       -1.3230219889
 C        -4.7519764619       -2.0611145494       -2.6787666413
 C        -3.2561193611       -2.6290729245       -2.5113427212
 C        -5.7937061316       -3.0632407304       -0.6479497928
 C        -6.7889177841       -0.9568167163       -1.4832582687
 O        -3.5410219525       -1.6505026635        0.1196397188
 O        -5.3317765114       -2.0221832683       -3.7202731197
 C        -2.5514877038       -2.9992888065       -3.8805070731
 C        -1.3114816130       -3.8494846018       -3.6153277610
 C        -0.0250900832       -3.1219844073       -3.0842401789
 C        -0.3122277340       -3.0931903360       -1.5603895701
 C        -0.0170639536       -4.3401716963       -0.6820346125
 O        -1.4114236177       -5.0248056296       -3.7784449081
 O        -0.5588188919       -2.0466852343       -1.0166670290
 C         1.1787594173       -3.9966487827       -3.4729775968
 C         0.1972232622       -1.6000135554       -3.4938659058
 C        -1.2429890072       -4.8750618057       -0.0196389146
 C        -1.1471757967       -4.7578480504        1.5167816074
 C        -1.3579419834       -6.0002485120        2.4358455049
 C        -0.3232095945       -7.0791078359        1.9417786888
 C        -0.1207735361       -8.3270686685        2.8159938704
 C        -1.0183605193       -5.5329511045        3.8262268507
 C        -2.7631281683       -6.6179485925        2.3249630294
 O        -1.0391442263       -3.6125130662        2.0014078995
 O         0.3731092108       -6.8302476264        0.9679946625
 C         0.6833927612       -9.4634139557        2.0954360982
 C        -0.1749034998      -10.1218005918        1.0348400899
 C         0.3222014782      -11.3776503603        0.2981749736
 C        -0.8931627810      -12.1441490890       -0.4096720061
 C        -2.0554207230      -12.4451965210        0.6334599122
 O        -1.3178626700       -9.6439213007        0.9254799258
 O        -0.7024057095      -12.4551422613       -1.5607372266
 C         1.3936966391      -10.9093564499       -0.5888436070
 C         0.9844263962      -12.5189736755        1.2406198127
 H         1.3355869795        6.9326436701        5.5558475352
 H         0.6598255450        5.3348058004        5.3807684322
 H         1.9307885806        6.0006081764        4.3786315799
 H        -0.8963611141        7.6127390761        0.0077892810
 H         0.0153864237        9.1284953800        0.4955184237
 H        -2.1083982662        7.9573294045        3.2770745159
 H        -1.5923553693        8.9471006579        1.9751399408
 H        -1.5075413832        9.6544556179        3.5080246150
 H         2.1478881316        8.6883750273        3.1836741073
 H         0.9503734048        9.8842302641        3.6975672972
 H         1.2569224695        8.6217933188        4.7077658881
 H         1.1779181374        6.7639847817       -0.7828222954
 H         0.7072193336        8.0938205225       -1.6855115319
 H         5.7209855504        6.8921245810       -1.9100378893
 H         4.7018821954        6.4710081252       -0.7219282791
 H         1.6642334711        9.4419141928       -3.0042128550
 H         3.2799647652        9.8602259185       -3.4184350536
 H         2.3158264029       10.7314844945       -2.1766454464
 H         4.1576053844       10.1602272235       -0.1196568902
 H         5.4235460811        9.0155593514       -0.5688306179
 H         5.0573036389       10.2825986664       -1.6629393820
 H         5.3055717719        4.3344351363       -2.5630341298
 H         4.1717629086        5.2732722295       -3.5245986615
 H         2.6183717753        0.8658675766        0.2190173605
 H         3.3721457709        2.5631368909        0.3333226152
 H         1.4808979035        3.0362077806       -4.3758966663
 H         2.2289916769        4.5752261547       -4.1391572346
 H         0.9234504105        4.0517003477       -3.0162544525
 H         4.6746008296        1.9746872925       -2.6440332370
 H         3.5916496989        1.4580898388       -3.7265351314
 H         4.4337598825        2.9741736025       -4.0739141925
 H         1.7623452662        2.3830586735        2.0063417892
 H         1.2247578481        3.5318340820        0.7193662280
 H        -2.9592959263        2.1639209493       -0.8734035173
 H        -2.2648567199        0.5305560945       -0.7227563258
 H        -1.5616594535        3.4076405402        3.5385939571
 H         0.0166557119        2.6658388982        3.3481252685
 H        -1.5136498928        1.7435990990        3.5279725016
 H        -1.6451246297        3.6828296126       -0.4638487979
 H        -1.9467955356        4.4096330966        1.1996729943
 H        -0.4508995437        4.3192980445        0.6474930445
 H        -4.8473961175        0.9176788492       -1.2737143102
 H        -4.9387603566        0.8589552629        0.4759606293
 H        -2.6329571388       -1.8386707805       -2.0210510729
 H        -3.0817138288       -3.6376303958       -1.9500153122
 H        -6.7968927744       -3.4094949792       -0.8016025142
 H        -5.7998824862       -3.0003038016        0.4555335056
 H        -5.2478336853       -3.9174583316       -0.9327378750
 H        -7.1599821785       -0.5626834422       -0.5160237145
 H        -6.6148688937       -0.0856163191       -2.1438845419
 H        -7.5220045672       -1.6065675469       -1.9220140779
 H        -3.2322439626       -3.6314225633       -4.3943589872
 H        -2.4954917596       -2.0833020341       -4.4398310692
 H         0.4451371624       -5.0817438843       -1.3623324923
 H         0.7463668802       -4.1288405636        0.0256186047
 H         1.3802406082       -4.1164274541       -4.5616076365
 H         1.0010886037       -5.0179400969       -3.0870541157
 H         2.1136151586       -3.7652500011       -3.0097021364
 H        -0.4245227855       -0.9183273447       -3.0057257104
 H         1.2136009663       -1.3793545584       -3.3570121807
 H        -0.0204126911       -1.5916619858       -4.5966490939
 H        -1.4023743240       -5.9375334572       -0.2353269009
 H        -2.2089387209       -4.4339530542       -0.3233421177
 H         0.3160089339       -8.0780925395        3.8231063355
 H        -1.1257925600       -8.7755300608        3.1499295539
 H        -1.4705471354       -6.3038290504        4.5196078690
 H        -1.3320476847       -4.5032372553        4.0295734219
 H         0.1065685339       -5.4998844171        3.9426632174
 H        -2.8995427743       -7.2372856602        3.1892304962
 H        -3.6018650986       -5.8836217581        2.4399981593
 H        -2.8055128098       -7.0618212703        1.3421828445
 H         1.6178645633       -9.0634970050        1.6375711602
 H         1.0774003403      -10.2222237403        2.8279570595
 H        -2.8342997473      -13.0342701029        0.2080090655
 H        -1.7407204910      -13.0914938973        1.4666425609
 H        -2.4422311504      -11.4254677247        0.8825790636
 H         2.0777096699      -10.2842582624       -0.0451323225
 H         0.9145764373      -10.3528979774       -1.3643203259
 H         2.0307607993      -11.7420440983       -0.9374389367
 H         1.9866053575      -12.2348350481        1.5102384451
 H         0.2564943845      -12.6319684188        2.0711237673
 H         0.9986683968      -13.3865843160        0.6106938227
 Na       -1.3053294872       -1.2879017764        0.9529070707
