155

 C         0.4824904765        6.0609046910        5.1883919373
 C        -0.6532799633        6.1179492769        4.1976158930
 C        -0.8622045195        7.2744288401        3.1592348842
 C        -0.0479110470        6.8022190100        1.9220895141
 C         0.0565664301        7.7156763048        0.6933014540
 C        -2.4639406478        7.3144335145        2.6815275200
 C        -0.3549772863        8.6460390239        3.6391493533
 O        -1.4042703795        5.2075282195        3.9845380328
 O         0.4682845029        5.7036087898        1.8846247947
 C         1.4183120034        7.5384898683       -0.0714553220
 C         2.4075785488        8.7479124423        0.1202973295
 C         3.5007622047        8.9238511238       -1.0988807360
 C         3.9417478843        7.6636265599       -1.9091963911
 C         5.1105449945        6.7424349909       -1.5527929972
 O         2.1750622801        9.6311187444        0.9127130627
 O         3.3492821739        7.4998422339       -2.9706646103
 C         2.7331398118        9.7086766844       -2.1896902557
 C         4.7439850491        9.7557213282       -0.8648691188
 C         4.9471764111        5.3430499469       -2.1520914340
 C         3.6669641245        4.6054939139       -1.4714614121
 C         3.0293037354        3.2826797306       -2.1630998528
 C         1.6356679444        3.2111348325       -1.4539755804
 C         1.7605269243        2.6652627600        0.0263543128
 C         2.7642783033        3.5686994198       -3.6246743650
 C         3.9391107188        2.0133490429       -2.0387184821
 O         3.2051346595        5.1468785307       -0.4796022530
 O         0.6502307406        3.6111231624       -1.9951080040
 C         0.5042155534        3.0251555016        0.7115936007
 C        -0.3430216602        1.8344838227        1.0689295838
 C        -1.7169309635        2.1395706388        1.6960958554
 C        -2.7380985422        1.0952549757        1.0759381459
 C        -3.0521109703        1.2867151197       -0.5006931659
 O         0.0122424449        0.6882997428        0.7834849645
 O        -3.0258084751        0.1096497984        1.6572406949
 C        -1.7483078510        1.9409283772        3.2359975651
 C        -2.2393723349        3.5994503363        1.4025848944
 C        -4.2758990484        0.5445868809       -0.9403560991
 C        -4.1970265132       -1.0363848951       -0.8274464492
 C        -5.2665231556       -1.8281863892       -1.7268380543
 C        -4.4409027042       -2.3474797269       -3.0509883548
 C        -3.4489127090       -3.5224861365       -2.7201258137
 C        -5.7638950286       -3.0682238628       -0.8664503171
 C        -6.5515155179       -1.0018140892       -2.0768758568
 O        -3.2697680176       -1.6959044125       -0.3221184182
 O        -4.5592994078       -1.8217455370       -4.0869922696
 C        -2.4138903641       -3.5803744347       -3.9429472278
 C        -0.9373502428       -4.0224126792       -3.8391109844
 C         0.2252256765       -2.9804738368       -3.3493334337
 C        -0.0565131649       -2.6402805469       -1.9087929126
 C         0.3786874127       -3.6636519463       -0.8365418050
 O        -0.5802904848       -5.0814116911       -4.2074361860
 O        -0.6449775242       -1.5514635272       -1.6055533713
 C         1.5399290827       -3.7378171825       -3.4519367205
 C         0.1419416167       -1.6815071391       -4.2311969636
 C        -0.8195997412       -4.3772811047       -0.0836543379
 C        -0.7654268442       -4.2814815989        1.5108987482
 C        -0.9476303569       -5.6758581988        2.3384155883
 C         0.0275971391       -6.7491094691        1.7678401791
 C         0.0741247094       -8.2005202174        2.0779937880
 C        -0.6792349614       -5.5392296606        3.8506021790
 C        -2.4294772793       -6.0569680731        2.1757140015
 O        -0.7932778488       -3.2378722964        2.1676749943
 O         0.8445843636       -6.3226762857        0.9392364733
 C         0.7672393758       -9.1083758416        0.9817043673
 C        -0.2156506985      -10.3353688496        0.7883877571
 C         0.3439082799      -11.7931553913        0.4720696384
 C        -0.6959317344      -12.5936745253       -0.3070197766
 C        -1.8954148012      -13.3059381915        0.4958161436
 O        -1.4119501724      -10.2292598406        1.0227541416
 O        -0.7322077762      -12.6431305526       -1.5122683704
 C         1.6991173229      -11.6269833134       -0.3341480510
 C         0.8207833291      -12.3820924313        1.8029362422
 H         0.2030899802        6.6859857584        6.0227690730
 H         0.7055412444        5.0508066013        5.4915376152
 H         1.4097455380        6.3938793311        4.7876824258
 H        -0.7817495681        7.2801233429        0.0608716012
 H        -0.2934797784        8.7400075949        0.7233082366
 H        -2.7552712998        8.3998190174        2.6691934153
 H        -3.0654985513        6.8471709118        3.4128489201
 H        -2.5924093587        6.9236974775        1.6671875030
 H        -0.1724658916        9.3302623927        2.8648901348
 H        -1.1760778993        9.1960684244        4.1879890514
 H         0.4874513146        8.7170240761        4.2434295645
 H         1.9653020290        6.6391267040        0.1905983996
 H         1.0777836977        7.4662490841       -1.0707616302
 H         5.9914764113        7.2150476602       -1.8712398715
 H         5.1219706241        6.5302613259       -0.5124796884
 H         1.7273699407        9.1737023907       -2.3588795896
 H         3.2966280034        9.7325010833       -3.0843484960
 H         2.7014643775       10.7529678459       -1.9294751180
 H         4.5151784535       10.7970823022       -0.6127788910
 H         5.4346175277        9.2965046764       -0.2156914229
 H         5.1829700351        9.8686769521       -1.8837299713
 H         5.7884076508        4.6075038270       -1.8664360843
 H         4.7677545384        5.3743286218       -3.2693352942
 H         1.9395977497        1.5391207429        0.0853361377
 H         2.7067895118        2.9838747286        0.4899346846
 H         2.4095525728        2.6537510200       -4.1055655292
 H         3.6131738463        4.0591502062       -4.0961361198
 H         1.9531810455        4.3036205080       -3.6394237460
 H         4.3362139180        1.9425448823       -1.0308666500
 H         3.3481905555        1.1613404460       -2.3560130013
 H         4.8706457113        2.0364912713       -2.6672956345
 H         0.5499947357        3.5625871318        1.7353684538
 H        -0.0844440366        3.6129233728       -0.0567379270
 H        -3.0223852538        2.3300715027       -0.8649562234
 H        -2.1535984875        0.9309636883       -1.0336279318
 H        -2.5594806232        2.5978959320        3.7255204005
 H        -0.7931263249        2.3511847720        3.6241201374
 H        -1.6666885902        0.9046095757        3.5616829228
 H        -1.9974353191        3.9967790070        0.4276193836
 H        -3.3352636906        3.6216331390        1.4217215884
 H        -1.7218520577        4.2176704521        2.0995388411
 H        -4.5948754455        0.7919774127       -1.9266718604
 H        -5.0903854814        0.7443649719       -0.3223686426
 H        -2.9156025946       -3.4574087816       -1.7730738282
 H        -4.1467692259       -4.4098837044       -2.6604055194
 H        -6.6956021715       -3.4747744692       -1.2620836671
 H        -5.8113249550       -2.8815139758        0.2483340389
 H        -5.1234839859       -3.9203433280       -0.8607172760
 H        -7.1021806491       -0.7297877954       -1.1941932188
 H        -6.3258995618       -0.0877638410       -2.6512746444
 H        -7.2673447785       -1.6941249836       -2.5568301299
 H        -2.8585139276       -4.2405697835       -4.7292836030
 H        -2.4151000117       -2.5609799521       -4.3067171625
 H         0.8797814242       -4.4960798040       -1.3321615371
 H         1.0187613263       -3.2281129094       -0.0882878793
 H         2.0052470250       -3.5905403268       -4.4830607252
 H         1.4146470902       -4.8111390622       -3.2242492270
 H         2.3242825352       -3.3279451787       -2.8588354448
 H        -0.8599236842       -1.3921013884       -4.3203993515
 H         0.7113099469       -0.8775567092       -3.6996675649
 H         0.6016571707       -1.7752096911       -5.2327970554
 H        -0.7972866010       -5.4286718286       -0.3882097220
 H        -1.7255669820       -3.9019909848       -0.4770478192
 H         0.6922742408       -8.3784081203        3.0281670529
 H        -0.9605549634       -8.6117172134        2.3084669045
 H        -0.8243465730       -6.4765484257        4.4326627873
 H        -1.3286828056       -4.7478723507        4.2464362169
 H         0.3818798041       -5.3055115390        4.1472695807
 H        -2.4248110139       -7.1412709642        2.1792504989
 H        -2.8973892377       -5.4344413315        2.9653250182
 H        -2.8715795230       -5.7518678973        1.2816729863
 H         0.8119163245       -8.5826542645       -0.0027391505
 H         1.8263448267       -9.4954559045        1.2679561028
 H        -2.7049161097      -13.6553298826       -0.1510940574
 H        -1.5163570395      -14.2721324744        0.9626192308
 H        -2.3492193287      -12.5987170370        1.2239684576
 H         2.4031912869      -11.3711333894        0.4340238524
 H         1.6804560206      -10.8150414526       -1.1225709529
 H         1.9926991015      -12.5777364592       -0.8310369961
 H         1.4128359147      -11.6571161747        2.3461271239
 H        -0.0592128783      -12.5289052979        2.4398362205
 H         1.4898548691      -13.2530381208        1.6696640097
 Na       -1.1853267287       -1.2581826360        0.7722836565
