155

 C        -0.1558096895        6.1844982366        4.8581178080
 C        -1.4250619473        6.1082856042        4.0784780542
 C        -1.8365431957        7.5255014954        3.3162290701
 C        -0.8120956236        7.3706527402        2.1159205508
 C         0.3077629792        8.3879195719        2.0687853264
 C        -3.2310383212        7.5389291434        2.6655868469
 C        -1.6300841336        8.8210640543        4.2413684912
 O        -2.1239164459        5.1603747693        3.8226134187
 O        -1.1458433484        6.6255754244        1.2186872227
 C         0.8181823053        8.6450137864        0.7300052785
 C         2.1856370653        9.4787111262        0.9724953044
 C         3.1586593735        9.5008227750       -0.2880251048
 C         3.4920844099        7.9933186711       -0.5283742410
 C         4.7745571156        7.2391883571       -0.0094482115
 O         2.4378474381        9.8124927687        2.0863275189
 O         2.7405966551        7.3250523510       -1.2032902468
 C         2.3561945360       10.0344567221       -1.5200044012
 C         4.4156340741       10.4162174089       -0.0924296696
 C         4.8685981264        5.7998072570       -0.4215417183
 C         3.7990202640        4.7833743898        0.0314570142
 C         3.1933949358        3.7282374240       -1.0195612831
 C         1.5519500394        3.5475136916       -0.8781390754
 C         1.2763887545        3.2623203069        0.6774930770
 C         3.4676881667        4.2416459445       -2.4622838154
 C         3.8757761681        2.3040129408       -0.6860396751
 O         3.6258607187        4.6354448600        1.2379637255
 O         0.8339198197        3.5690892754       -1.8212095803
 C        -0.1806128357        3.1867159435        1.1917085340
 C        -0.9579257323        1.8198797328        1.0063137074
 C        -2.4306435910        1.7373216956        1.5342292389
 C        -3.2142366520        0.6061778708        0.6946416115
 C        -3.2172244354        0.6843582498       -0.8865199933
 O        -0.3998190622        0.7490716975        0.7904447310
 O        -3.7139488598       -0.4489874946        1.1542314658
 C        -2.4890097450        1.2734685866        3.0389327411
 C        -3.2068296686        3.0563834821        1.4232685316
 C        -4.3035406928       -0.2265302743       -1.5860446985
 C        -3.8429580202       -1.6492889200       -1.7741457710
 C        -4.4972091966       -2.5392238498       -2.8881902800
 C        -3.7580638962       -2.2040452776       -4.2137002205
 C        -3.4537342481       -3.2430117603       -5.3241763610
 C        -4.3124700289       -3.9597133225       -2.3184689997
 C        -6.0202532034       -2.4010995880       -3.1421735684
 O        -2.8121088940       -2.1224193241       -1.3525540523
 O        -3.2910103806       -1.0855556964       -4.3770961446
 C        -1.9469230548       -3.3227269085       -5.6603857387
 C        -1.0210419149       -4.0244677355       -4.5842104406
 C         0.3741115052       -3.4781943277       -4.2458344878
 C         0.2724226789       -3.1514436789       -2.6864915185
 C         0.5366758886       -4.1126424047       -1.5389498059
 O        -1.4939957110       -5.0641265434       -4.0908078080
 O        -0.0701695848       -2.0429701545       -2.3261342468
 C         1.4487984674       -4.5050756312       -4.4736964335
 C         0.7406878514       -2.1634328496       -4.9689863383
 C        -0.7257777501       -4.5509440011       -0.7461378909
 C        -0.5315600196       -4.3238269095        0.8078039290
 C        -0.3568698250       -5.5997323500        1.6983499270
 C         0.3999691014       -6.8339136691        1.1280555276
 C         0.4721506844       -8.0804195874        2.0062333298
 C         0.4724213872       -5.2724391334        3.0238150605
 C        -1.7741941024       -6.1327161952        1.7942750795
 O        -0.6117461430       -3.1966336626        1.3147617735
 O         0.8005797992       -6.8327065179        0.0013382279
 C         0.1272306587       -9.2639295829        1.1224343352
 C         0.3192708421      -10.6773382476        1.9051479693
 C         0.7858978272      -11.8336356972        1.0429596047
 C        -0.1074239057      -11.9748080152       -0.2225138791
 C        -1.4503017110      -12.7821386365       -0.2247061346
 O         0.0121126621      -10.7169607192        3.0613137435
 O         0.1025872736      -11.2237452850       -1.1270781506
 C         2.2638473659      -11.4084220700        0.5701226702
 C         0.8360467561      -13.1718697819        1.9702868206
 H         0.2832981163        5.2006151131        4.8699522483
 H         0.5083526169        7.0006273112        4.5526089499
 H        -0.3718145218        6.4500109826        5.9552659868
 H        -0.1803377462        9.3292715680        2.4470207102
 H         1.1840180836        8.0861638410        2.6099350413
 H        -3.8555839789        8.0612281627        3.3702043515
 H        -3.5774758644        6.4569253070        2.6090144085
 H        -3.2196488194        8.0268131534        1.6846192746
 H        -0.6242093344        8.8555718992        4.6365950135
 H        -1.8184278563        9.7029578274        3.6828508314
 H        -2.3992698727        8.7619699624        5.0114613277
 H         1.0377699937        7.7345551067        0.1527841601
 H         0.1674990664        9.3254579502        0.0398229121
 H         5.5882509252        7.8320440976       -0.3891101337
 H         4.7452441021        7.3280006976        1.0744923107
 H         1.3403347453        9.4424945304       -1.6839074036
 H         2.8394584190        9.8980162545       -2.4674884029
 H         2.0267381170       11.0530374515       -1.3525968570
 H         4.1524253902       11.4196663392        0.2147579820
 H         5.1439318351        9.9833847521        0.6910967242
 H         4.9927247689       10.3660973367       -0.9908743055
 H         5.7900537119        5.3791979603        0.0380851739
 H         5.0112065533        5.7663883895       -1.5063776134
 H         1.7350061623        2.1869966174        0.7708128399
 H         1.8571672768        3.8833124322        1.3882901177
 H         2.7028671521        3.8458611254       -3.1552064853
 H         4.4363672359        4.0543012501       -2.9172118001
 H         3.2898213850        5.3770532233       -2.4158562930
 H         3.8735086898        2.1523267419        0.4031627872
 H         3.5196569536        1.4190224750       -1.1926859803
 H         4.8540810677        2.5043390973       -1.0872028546
 H        -0.2254184598        3.3267345853        2.3525411062
 H        -0.8305492911        4.0466880128        0.8791088751
 H        -3.3331045866        1.6853642758       -1.2242700437
 H        -2.2154198860        0.4522012897       -1.1895973399
 H        -3.3887497202        0.7207618872        3.0569947627
 H        -2.5303826190        2.0913207110        3.7793724692
 H        -1.5665749531        0.7002394043        3.2394792044
 H        -2.9846296833        3.3871407065        0.3900057902
 H        -4.2695523918        2.9374312681        1.4741034331
 H        -2.8671495490        3.9107198960        2.0429904489
 H        -4.6232721897        0.1503439863       -2.5355198868
 H        -5.1300678207       -0.2208218463       -0.8280381883
 H        -3.9421824682       -4.1481562618       -5.0285922699
 H        -3.8538024445       -2.8542515969       -6.1859407684
 H        -4.6197939206       -4.7015077737       -3.0551113945
 H        -4.9779090853       -3.9966775243       -1.4607499805
 H        -3.2402777478       -4.0769622317       -2.0890557504
 H        -6.6257104264       -2.6041104871       -2.2284730872
 H        -6.2989404403       -1.4442641449       -3.5197168925
 H        -6.3310676341       -3.0232991339       -3.9479597319
 H        -1.8959945342       -3.9250086535       -6.6125544813
 H        -1.4882046725       -2.3014129842       -5.9260866460
 H         1.1761488271       -4.9380792248       -1.8669455838
 H         1.1811021878       -3.5128062723       -0.9070893643
 H         1.6545694472       -4.4484089474       -5.5076961280
 H         1.1084086878       -5.4676984530       -4.1304147327
 H         2.3254126953       -4.1163304646       -3.8663671312
 H         0.2720734569       -1.2762922349       -4.5418869422
 H         1.7906662381       -1.8873509829       -5.0901045667
 H         0.5510832514       -2.1930155458       -5.9985741784
 H        -1.0327941711       -5.5755918740       -0.9684717565
 H        -1.5646815194       -3.8905003249       -1.0667053170
 H         1.5450959765       -8.0319692234        2.3305624450
 H        -0.1421000191       -7.9214281384        2.9610870062
 H         0.7733861416       -6.0876224398        3.6310722709
 H        -0.0933423873       -4.5795593456        3.6348828914
 H         1.3370387759       -4.7337467515        2.7319455461
 H        -1.9307809321       -6.8099701129        0.9604374974
 H        -2.1229081621       -6.5875042833        2.7293379633
 H        -2.5166397129       -5.3614257115        1.6413077109
 H        -1.0062050207       -9.1873770774        0.9862240360
 H         0.6032189371       -9.2207950726        0.1244493305
 H        -1.3076190265      -13.8995306673       -0.3593839813
 H        -1.9718774930      -12.4976431186        0.7003476802
 H        -2.0626747514      -12.3976862559       -1.0644957152
 H         2.9960292627      -11.2757953470        1.4475770853
 H         2.1291122445      -10.5084422889       -0.0406338967
 H         2.7811300869      -12.1351439253       -0.0539998644
 H        -0.0081927775      -13.8329252241        1.9229376180
 H         1.5172607848      -13.9055558820        1.7322265898
 H         0.8705583706      -12.8213005416        2.9778840096
 Na       -1.0629953747       -1.5114480558        0.0259370683
