155

 C        -0.8822302148        5.9148653312        5.4978809995
 C        -1.6261300231        6.0769908365        4.1594044776
 C        -2.2196675461        7.5294950428        3.6914451419
 C        -1.4812258357        7.9226186193        2.3058326703
 C        -0.0618032038        8.5353315628        2.4818499862
 C        -3.7352278355        7.3842931522        3.4782112624
 C        -1.8471896824        8.7085773568        4.7268050912
 O        -1.6719442169        5.2092613953        3.2983497783
 O        -2.0016159775        7.7469670895        1.2375556914
 C         0.8732711346        8.3027450774        1.2154715786
 C         1.9902814785        9.2650523715        1.2288347065
 C         3.0686265271        9.2928525708        0.0244881009
 C         3.5359376028        7.8201897120       -0.2760475017
 C         4.6495963447        7.2172589440        0.7056195698
 O         2.2029748828        9.9023420671        2.2529821225
 O         2.9806936520        7.1433174008       -1.1422234143
 C         2.3345050150        9.8082821559       -1.2407442479
 C         4.2955455881       10.2016334346        0.3582763317
 C         4.8485666021        5.7218501624        0.2228152021
 C         3.4032048205        5.0278904768        0.3826919878
 C         2.9651462032        3.7390242755       -0.4640786745
 C         1.5016320005        3.3333785673       -0.2117514557
 C         1.1749831760        2.9819781817        1.2308267079
 C         3.2073253704        4.0646874413       -1.9123773066
 C         3.7574122864        2.4573742165       -0.0503956257
 O         2.6083660445        5.5177199181        1.1420492100
 O         0.7497185332        3.1121073519       -1.1789521164
 C        -0.2751730898        2.8710926046        1.6585603175
 C        -0.8771388760        1.5985704550        1.0109370506
 C        -2.5867248448        1.5531433301        0.9645072451
 C        -2.8511913921        0.4676939949       -0.0116734393
 C        -3.2461160920        0.7479794184       -1.4880233618
 O        -0.2140664221        0.7228487871        0.5329320713
 O        -2.7770154815       -0.7116161993        0.3762183357
 C        -3.1278812017        1.0243696547        2.4455502148
 C        -3.0794925112        2.9572140564        0.8095346327
 C        -4.3214375315       -0.2859721703       -1.9510151378
 C        -3.7399864814       -1.5599962831       -2.4970700373
 C        -4.6762297049       -2.5634979787       -3.3261483882
 C        -4.1138260091       -2.1229093522       -4.8337209061
 C        -3.1337109696       -3.0426732650       -5.5616710779
 C        -4.3768389109       -4.0730001058       -2.8738396890
 C        -6.2396226292       -2.3019617060       -3.1963548017
 O        -2.5815753995       -1.8762773107       -2.3966938793
 O        -4.2599801637       -0.9786458525       -5.1800354979
 C        -1.6751590667       -2.7349518100       -5.3954300666
 C        -0.8734214991       -3.8421404051       -4.7804056231
 C         0.6364083518       -3.6875878599       -4.3528321221
 C         0.5147313552       -3.4897606742       -2.7409428443
 C         0.3097251824       -4.7148788377       -1.8062544943
 O        -1.4390475526       -4.8296111291       -4.3446999863
 O         0.4373064165       -2.3187703869       -2.3434557694
 C         1.4495153715       -4.9381839874       -4.7348759989
 C         1.3534884020       -2.4526349090       -4.9105332356
 C        -0.9049578809       -4.5317450550       -0.7842549703
 C        -0.2733098276       -4.2995322075        0.6083427159
 C        -0.3927604951       -5.4114357372        1.6123131072
 C         0.6244776862       -6.5331709488        1.2856076863
 C         0.2853639559       -7.9673189697        1.7883906472
 C         0.1969586227       -4.9623909560        3.0789679579
 C        -1.8438149694       -5.9361551179        1.5484939178
 O         0.2130695712       -3.1885938768        0.8565057469
 O         1.5494947313       -6.2865660070        0.5276033320
 C         1.0948400189       -9.0457864872        1.1781258066
 C         0.9407432852      -10.4361205955        1.8154725959
 C         0.8706426092      -11.8577284509        1.1823482408
 C         0.0581722658      -11.8808179633       -0.1596121145
 C        -0.3812962011      -13.2198634616       -0.6929533751
 O         0.9406654487      -10.3885380483        3.0724927447
 O        -0.1957072822      -10.8237581125       -0.7115553039
 C         2.3281027831      -12.2053879980        0.7972637660
 C         0.3562971648      -12.9148078593        2.2665086899
 H        -0.2195700164        5.0560522675        5.5612828031
 H        -0.2241677001        6.7553661396        5.6011337609
 H        -1.5466873535        5.8868646835        6.3173926515
 H        -0.3011061823        9.6183900540        2.5392314674
 H         0.2684403882        8.2580842379        3.4248397321
 H        -4.2122501998        6.5268636932        3.8821507084
 H        -3.8688266045        7.4509383282        2.4101607966
 H        -4.2661641365        8.2725216229        3.9272692255
 H        -0.8557804657        8.7178150262        5.1205158852
 H        -2.0714618111        9.7319428360        4.2595958315
 H        -2.4808761878        8.6639874606        5.6269327711
 H         1.3084166728        7.2919578632        1.2179028694
 H         0.2781078638        8.4968468026        0.3480362615
 H         5.5415769973        7.7887644123        0.6600805970
 H         4.1751221348        7.3237083507        1.6700153688
 H         1.3581626369        9.5381814000       -1.2150707062
 H         2.7965853238        9.3860691698       -2.1251101028
 H         2.3875731904       10.9164650018       -1.4368767865
 H         4.1242083258       11.2482717029        0.4165431808
 H         4.9213645269        9.8614739084        1.1773804485
 H         4.9035245346       10.1125584772       -0.5538356645
 H         5.6612866590        5.1784965916        0.8455314290
 H         5.2366157956        5.7804336910       -0.8319350213
 H         1.7021233806        2.0773893877        1.5556550172
 H         1.6384094529        3.7517661885        1.8451315731
 H         2.7940042751        3.3143118538       -2.6168263776
 H         4.2656437728        4.1423625589       -2.1627706120
 H         2.7749388231        5.0203614175       -2.2609604367
 H         3.7519041199        2.2929152968        1.0216913891
 H         3.5010701839        1.4884885487       -0.5489222446
 H         4.7652586007        2.7364620794       -0.1323605123
 H        -0.3064509238        2.7317526251        2.7655266886
 H        -0.8092757397        3.7844328449        1.5480873969
 H        -3.5451099263        1.7985824213       -1.7193606493
 H        -2.3356097636        0.5762213779       -2.1658489042
 H        -4.0565277079        0.4644082278        2.3412101521
 H        -3.1945420630        1.9334238989        3.0389283490
 H        -2.4922987264        0.2580190264        2.8453559142
 H        -2.6935683450        3.3533039912       -0.1123665854
 H        -4.1575005430        2.9790233492        0.6320754304
 H        -2.8817114492        3.6239646915        1.6999217627
 H        -4.9971724181        0.1421778478       -2.6336437803
 H        -4.9695545136       -0.5124085101       -1.0795966367
 H        -3.3724552819       -4.1075131767       -5.2713895722
 H        -3.4536473998       -3.0471879722       -6.6377285947
 H        -4.6707810871       -4.7593790400       -3.7073621123
 H        -4.9358376053       -4.3315769388       -1.8700316344
 H        -3.3441522411       -4.2460626803       -2.6500648018
 H        -6.5270503239       -2.4002524248       -2.1378377237
 H        -6.5508362382       -1.2988603409       -3.4548016674
 H        -6.7953625831       -3.1229150838       -3.6773613397
 H        -1.2536884921       -2.4873260549       -6.3682667150
 H        -1.4611505327       -1.8776632146       -4.7466590371
 H         0.1999249281       -5.5874580175       -2.4104941198
 H         1.2567295324       -4.7259911659       -1.2473186432
 H         1.7831440541       -4.8266434131       -5.7614273680
 H         0.7434104621       -5.7443496388       -4.5869489209
 H         2.3251339490       -4.9231484284       -4.0896582439
 H         1.0190935344       -1.4735127269       -4.6384294264
 H         2.4658103969       -2.4755118814       -4.6074686771
 H         1.2597761587       -2.3433379709       -6.0049270917
 H        -1.3630940338       -5.4722241790       -0.7046414549
 H        -1.5917369071       -3.7498753716       -1.1080770889
 H         0.4733291880       -7.8267259249        2.8133067658
 H        -0.7724502023       -8.1482251695        1.6866179346
 H         0.6384464829       -5.7708656993        3.7113072791
 H        -0.7016814972       -4.4424732829        3.5567903783
 H         0.9576945309       -4.1537297288        2.8635234550
 H        -1.9954108572       -6.9411188509        1.0933142209
 H        -2.2676016359       -6.0997841924        2.6070885168
 H        -2.4956841782       -5.2422692097        1.0507485221
 H         0.8739393875       -9.0253923551        0.1010731715
 H         2.1278367089       -8.8437730925        1.2840586192
 H         0.3169987513      -13.9268770837       -0.3440058032
 H        -1.3249816352      -13.5244580002       -0.2464221422
 H        -0.4185450028      -13.1425570963       -1.7467860069
 H         2.9868457062      -12.2352547685        1.6467481048
 H         2.7247801598      -11.3822434550        0.1624282845
 H         2.3803579794      -13.1060492477        0.2534978950
 H         1.0516109915      -13.7815672521        2.3318928300
 H         0.0603278801      -12.3787411332        3.1811172717
 H        -0.6154251778      -13.3361692625        1.8855815508
 Na       -0.9794972467       -1.5106498938       -0.4747674412
