155

 C        -1.2860214974        5.5978871888        5.4282510573
 C        -1.6026004065        6.1639229167        4.0024304860
 C        -2.2528777432        7.5314011792        3.6887888867
 C        -1.4215165016        8.0960769159        2.4653736496
 C         0.0960615843        8.4394675955        2.7550577695
 C        -3.7963205799        7.1113071632        3.3748129529
 C        -2.2424427568        8.5068384180        4.8156038556
 O        -1.3465053360        5.4262661013        3.0474405622
 O        -1.9541637445        8.3543393447        1.4096634858
 C         0.6619878386        8.5956367677        1.3587035355
 C         2.0252970953        9.2040188870        1.4331148388
 C         2.8377845054        9.3674487663        0.1842718454
 C         3.3162968900        7.8618113009       -0.2141999508
 C         4.3769980597        7.2522877002        0.7080897121
 O         2.4291877423        9.7147478909        2.4551197533
 O         2.8895623981        7.4206740857       -1.2548764542
 C         1.9412734282       10.0881463290       -0.9122790579
 C         4.0335437901       10.2723455274        0.5175093421
 C         4.5245446411        5.6887387664        0.5350083219
 C         3.1433102825        5.0252851142        0.5441819155
 C         3.0425359122        3.5201538251       -0.1238516407
 C         1.6789893837        3.1193002728        0.3519064406
 C         1.4277761618        2.2384064766        1.6187160810
 C         3.0218504640        3.5213190096       -1.6817583921
 C         4.1788317826        2.6531107200        0.4223186047
 O         2.3408747766        5.5501787372        1.2531633537
 O         0.7003485606        3.2729773797       -0.3851672138
 C        -0.1462763248        2.1710963173        1.9588194820
 C        -0.8638025186        1.3490706861        0.8284995630
 C        -2.4492342266        1.3420275789        0.9038544759
 C        -3.0482270401        0.3570591581       -0.1955551450
 C        -3.3820434456        0.8834899910       -1.6440451639
 O        -0.1511809668        0.6406504559        0.1392145420
 O        -3.2892330330       -0.7520905974        0.2233320454
 C        -2.9475738216        0.9700187280        2.2732210146
 C        -2.9586844549        2.7879617336        0.6287790862
 C        -4.1985811887       -0.0464481442       -2.5503153187
 C        -3.6807441393       -1.4770544050       -2.7304904335
 C        -4.5466134393       -2.4369753120       -3.6384428277
 C        -4.1872984840       -2.2265447869       -5.2254422199
 C        -3.0019450041       -2.8757557857       -5.9027329218
 C        -4.2549386023       -3.9019772990       -3.2740793555
 C        -6.0293537326       -2.1768393033       -3.4207606407
 O        -2.6078372036       -1.8446894605       -2.3185390083
 O        -4.9251077148       -1.5155500720       -5.8322144490
 C        -1.6838808187       -2.6840829997       -5.2020126467
 C        -0.7407022147       -3.9753566303       -4.9880145005
 C         0.6575345126       -3.5929027821       -4.3511488610
 C         0.4233149336       -3.4874654170       -2.7502507397
 C         0.2801577149       -4.7349690947       -1.9225177030
 O        -1.0716267862       -5.0849165233       -5.1752596294
 O         0.6212889343       -2.3862265017       -2.2751988368
 C         1.6906644945       -4.7817787570       -4.7045969308
 C         1.3067083177       -2.2919228945       -4.8333479829
 C        -0.9179115715       -4.7832709782       -0.8704606674
 C        -0.5707841310       -4.3004240447        0.5841189554
 C        -0.2991885771       -5.4435902968        1.6592495576
 C         0.7289186763       -6.5255037675        1.0728275853
 C         0.3448549675       -8.0230796454        1.3833710385
 C         0.3742233664       -4.7938146705        2.9398128905
 C        -1.7276784186       -6.0617531323        1.8588207931
 O        -0.5414330319       -3.1345118340        0.8904245408
 O         1.7749443268       -6.1917551491        0.5347686400
 C         1.5173624303       -8.9361703215        1.3192342883
 C         1.1456458633      -10.2740401047        1.9662382265
 C         1.1759399673      -11.6685368414        1.2486372934
 C         0.1225933392      -11.6534303507        0.0397097488
 C         0.2395604966      -12.8978028887       -0.9479701272
 O         0.7731836269      -10.2183552388        3.1280447244
 O        -0.8032532522      -10.8437487912       -0.0233481564
 C         2.6122286179      -12.1785809024        0.8389159712
 C         0.5058497693      -12.6673300483        2.3032881295
 H        -0.4299169789        4.9104213845        5.3518120562
 H        -1.0059636002        6.2541606566        6.2397117317
 H        -2.0972411462        5.0070295035        5.6852584401
 H         0.1797016291        9.3476624213        3.4184303543
 H         0.5045993026        7.6808048733        3.3784699475
 H        -4.5263229685        7.3941396572        4.1381918550
 H        -3.9209637933        6.0458427616        3.2446387329
 H        -4.1241753956        7.6227565717        2.4058626056
 H        -1.3273109576        9.0043061231        4.9171950073
 H        -2.9919927104        9.3482386355        4.8138893791
 H        -2.3316592460        7.9640906724        5.7255092777
 H         0.6314271303        7.5774303769        0.9445006107
 H         0.0519234902        9.2325582743        0.8147734870
 H         5.2350552866        7.8837565021        0.4055351814
 H         4.1664678264        7.4271833963        1.7883591883
 H         1.4958785236        9.3594843510       -1.5080616682
 H         2.3908317151       10.8681760472       -1.5617894034
 H         1.2057950398       10.7259946694       -0.3507490094
 H         3.7411505431       11.2870091645        0.7494629823
 H         4.5945782140        9.8777635560        1.3242733658
 H         4.6583918098       10.4524805437       -0.3854813463
 H         4.9778290549        5.1771581507        1.4061227060
 H         5.2340044994        5.4191885775       -0.2422790091
 H         1.7239755710        1.2901328766        1.3220190861
 H         2.1071179587        2.4261752879        2.4047768656
 H         2.9347313612        2.4929125554       -1.9814072223
 H         3.7591258641        4.0540907713       -2.2344831031
 H         2.1683260517        3.9850140488       -2.0626442162
 H         4.1930628786        2.5860316795        1.5166761241
 H         4.1816443448        1.5816584810       -0.0011029990
 H         5.1602532514        3.0199889987        0.2039043054
 H        -0.3127638903        1.6888019909        2.9033246026
 H        -0.5265795582        3.1590452920        2.0588352888
 H        -3.9749053526        1.8178350483       -1.5374520897
 H        -2.4001750948        1.0060479652       -2.2157526468
 H        -4.0334216016        1.2131121295        2.4734080037
 H        -2.4599940079        1.7097014051        2.9355105125
 H        -2.6928405506       -0.0920148799        2.4159728463
 H        -2.8095135346        3.1292447723       -0.3629618475
 H        -4.0320032020        2.8113626203        0.8194149463
 H        -2.4037097808        3.5471026162        1.2054400276
 H        -4.3037591292        0.3608430381       -3.5442294508
 H        -5.2820188616        0.0289358062       -2.2263947490
 H        -3.2159380754       -4.0041162191       -5.9957540001
 H        -2.9959145628       -2.5127513999       -6.9901652844
 H        -4.7552725771       -4.4720055965       -3.9936706098
 H        -4.4660841905       -4.1967658178       -2.2455192715
 H        -3.2393948219       -4.1961225557       -3.3887666104
 H        -6.2731446003       -2.2371108602       -2.3673330770
 H        -6.2884060472       -1.2283653044       -3.9031015312
 H        -6.6943695076       -2.9355283326       -3.9067396674
 H        -1.1699947283       -1.8525648118       -5.6478678080
 H        -1.8683133008       -2.4373209568       -4.2093442719
 H         0.2481000269       -5.5843297995       -2.5995034255
 H         1.2092932581       -4.7831255752       -1.2533896494
 H         1.7668686029       -4.7250526256       -5.8032089284
 H         1.3219077222       -5.7070859853       -4.2469693546
 H         2.6235088900       -4.5365518601       -4.2658336303
 H         0.8843312409       -1.4221066291       -4.3538206443
 H         2.4143706983       -2.3539748151       -4.7851232296
 H         1.0670325594       -2.0755339881       -5.9059570820
 H        -1.2031519175       -5.8323480895       -0.8109500659
 H        -1.8094268845       -4.1859208200       -1.2023479368
 H        -0.0319550477       -8.0347800849        2.3600980871
 H        -0.4068263866       -8.3628025891        0.6814241515
 H         0.0721733690       -5.3089551358        3.8468931370
 H         0.2278407549       -3.7277630741        2.8273844939
 H         1.4119519497       -5.1094160981        2.8331181069
 H        -2.2978987691       -5.8706582226        0.9264069268
 H        -1.5927371745       -7.1076758982        2.1703830872
 H        -2.2652061761       -5.7467232632        2.7642791774
 H         1.8928771804       -9.2161174536        0.3194362657
 H         2.2776296430       -8.4967523112        1.9063011362
 H        -0.4091525387      -13.6903150149       -0.5802897811
 H        -0.0953121573      -12.5495931998       -1.9829802520
 H         1.2992949290      -13.2108057281       -0.9543267160
 H         3.3002877386      -12.0522741847        1.6711263381
 H         3.0605242361      -11.5437815128        0.0027675724
 H         2.5206461396      -13.2362215074        0.6176482125
 H         0.6081487364      -13.6414511265        1.8337440503
 H         0.8107251166      -12.4064752554        3.3453745071
 H        -0.5626397053      -12.6773019355        2.1632750122
 Na       -0.6763907035       -1.3288921585       -0.5997417906
