155

 C        -1.7011566432        5.3894226080        5.4621612865
 C        -1.7227158980        5.8353204776        3.9991744297
 C        -2.4735588976        7.2784293358        3.6845918129
 C        -1.6788679824        8.2554261335        2.5965289033
 C        -0.1152561378        8.3876995872        2.7582195889
 C        -3.8619387478        6.7491967125        3.1843270066
 C        -2.6161190588        8.1644940546        4.9131257259
 O        -1.2353394880        5.0948898652        3.1635510967
 O        -2.3060768632        9.0327873227        1.9313313260
 C         0.5284594183        9.0013594453        1.5138208781
 C         2.0789896956        9.3614571719        1.5966591825
 C         2.8626010678        9.6754084795        0.1930790258
 C         3.3358050696        8.1459439825       -0.1744293338
 C         4.1514428335        7.3678445331        0.8059935130
 O         2.6899484976        9.2431033501        2.6177743331
 O         3.0421257013        7.6746428144       -1.2343123967
 C         1.9601131349       10.2624218527       -0.9295440994
 C         3.9874816332       10.6000465234        0.6052069870
 C         4.1622297050        5.7960210650        0.3044270586
 C         3.0378776004        4.9844430991        0.8244229010
 C         2.9711635327        3.4977010489        0.3271987833
 C         1.5483138503        2.8842111640        0.5745382774
 C         1.5102634086        1.8536326243        1.6822416847
 C         3.0277444201        3.2721328315       -1.2580675317
 C         4.2164506371        2.8623012292        1.0074904220
 O         2.1928530111        5.3972718799        1.5916677359
 O         0.6256858417        3.1956886106       -0.1167478450
 C        -0.0098073849        1.5553982324        2.0055510167
 C        -0.8545932199        0.8606091806        0.9148521604
 C        -2.3998594217        1.3565679873        0.8158847977
 C        -3.0702809830        0.4304783641       -0.3081500768
 C        -2.9670240581        0.8228730745       -1.7282053107
 O        -0.3911001405        0.0627514271        0.0846817390
 O        -3.4632467643       -0.6718201376        0.0654597264
 C        -3.0646053371        0.9834964494        2.1528352008
 C        -2.4827564074        3.0101467771        0.6039192547
 C        -3.9718570295       -0.0304902587       -2.5658405348
 C        -3.5985496396       -1.4459275052       -2.9289172966
 C        -4.4531454780       -2.4389629512       -3.7077367891
 C        -4.0071080620       -2.3913801119       -5.2954369444
 C        -2.6820016196       -2.9427793299       -5.8518412033
 C        -4.1983040545       -3.8031305613       -3.1773573209
 C        -5.9251180874       -1.9763110930       -3.6518675824
 O        -2.4693503372       -1.8552464969       -2.6485352244
 O        -4.8632119979       -1.9070480589       -6.0275804762
 C        -1.3225712667       -2.4551526929       -5.4195681132
 C        -0.4171404424       -3.7870860293       -5.2376898235
 C         0.9568665612       -3.6035258177       -4.3783901785
 C         0.3648938824       -3.4824134843       -2.9042003313
 C         0.1992922704       -4.8081049869       -2.1494416259
 O        -0.7920955360       -4.8533869332       -5.6469782345
 O         0.2077183375       -2.3812169945       -2.3814805935
 C         1.8155967127       -4.8458760656       -4.7057424748
 C         1.7598347071       -2.2520467316       -4.6727722102
 C        -0.9657053137       -4.9267969748       -1.0349332547
 C        -0.7196900805       -4.2811000663        0.3660922077
 C        -0.2473633651       -5.3503839733        1.3888061410
 C         0.5642485220       -6.5489040856        0.7802941634
 C         0.1050679386       -7.9906267218        1.3205740786
 C         0.6107320188       -4.5901378788        2.4656331890
 C        -1.5907614257       -5.9048527102        2.0133544950
 O        -0.8115393374       -3.1373326202        0.6886737550
 O         1.5001758180       -6.4072508924        0.0092954511
 C         1.3573450037       -8.8688420969        1.2611085910
 C         1.1272007363      -10.1586605884        2.2887069716
 C         1.4009066446      -11.4907300579        1.4353877602
 C         0.3433586903      -11.3912135208        0.2528702745
 C         0.6082358724      -12.0747558175       -1.1306576801
 O         0.7720426543      -10.1984753322        3.4334357292
 O        -0.7068981804      -10.7784988399        0.4128843040
 C         2.7968464747      -11.7546507212        0.9063284041
 C         1.0084658552      -12.6807460462        2.3103248296
 H        -1.7935012712        4.2621779664        5.4333299852
 H        -0.7081423528        5.6419361494        5.9659065732
 H        -2.4927185473        5.7623797099        6.0847089043
 H         0.1222539638        9.1093344947        3.6245733227
 H         0.3873879976        7.4539560917        3.0302077200
 H        -4.6749014113        6.5428831909        3.9017615811
 H        -3.7675633885        5.8603137192        2.6224261523
 H        -4.2367917889        7.5389864655        2.4910352436
 H        -1.7526670553        8.4329952291        5.4756272251
 H        -3.1174227997        9.1388188353        4.6853707557
 H        -3.3127467156        7.6982262452        5.5627659076
 H         0.5092661639        8.2202469790        0.7065838160
 H         0.0619435774        9.8324188226        1.1262761522
 H         5.2207822906        7.7424353111        0.9312203103
 H         3.6797022877        7.4323152670        1.8370733373
 H         0.9532388396        9.7497085769       -0.8990075587
 H         2.3289801003       10.0523490534       -1.9723013538
 H         1.8601884349       11.3311763272       -0.7571780277
 H         3.6222070511       11.6478914621        0.7580230449
 H         4.3399130329       10.2997849943        1.5602834400
 H         4.8484206531       10.5548442779       -0.1447397386
 H         5.0828072703        5.3537593660        0.5359083632
 H         4.2795845750        5.7919115944       -0.7316454922
 H         2.2137046093        1.1022694665        1.5177013990
 H         1.9502253197        2.3830299750        2.5305430831
 H         2.2583923788        2.6139698175       -1.6695193610
 H         4.0204720689        2.8993905017       -1.6210049136
 H         2.8863583404        4.1476687483       -1.8350105039
 H         4.3577540074        3.0615333109        2.0411109695
 H         4.3153762101        1.7528662587        0.8463260110
 H         5.0384858285        3.1326759201        0.4174306139
 H        -0.1364179186        0.8946800318        2.8478963816
 H        -0.3815001411        2.5346909968        2.2161972740
 H        -3.2722817690        1.8386903407       -1.8695108357
 H        -1.9596397283        0.5376412415       -2.0917732880
 H        -4.0356116659        1.4968377381        2.1375912737
 H        -2.5000640394        1.3525896990        3.0041055072
 H        -3.0432262578       -0.0823066636        2.2293152319
 H        -1.7232206878        3.3635344006       -0.0502481649
 H        -3.4481351967        3.1650486660        0.0809806982
 H        -2.4011016328        3.6980320194        1.4410736284
 H        -4.2762786565        0.5157484875       -3.4566682058
 H        -4.9774294696       -0.0238179614       -2.0096417118
 H        -2.6488519260       -4.0461511631       -5.7286596053
 H        -2.7803203765       -2.6244858815       -6.9236235946
 H        -4.8922400064       -4.5124231582       -3.5194057355
 H        -4.2968892678       -3.8337765039       -2.1165784022
 H        -3.2197456079       -4.1744063907       -3.4816602334
 H        -6.1431245186       -2.0851842877       -2.6404983933
 H        -6.0512408886       -0.9754646793       -4.0391808014
 H        -6.6228148200       -2.5539263496       -4.2763876255
 H        -0.9686882150       -1.7766393341       -6.1497698084
 H        -1.3931340147       -2.0011529676       -4.5240706308
 H        -0.0522842034       -5.6234310313       -2.8326732135
 H         1.2873856951       -5.0366153563       -1.8071590631
 H         2.2526064510       -4.7625845153       -5.7388617253
 H         1.1287112182       -5.7375756164       -4.6611095974
 H         2.4628213418       -4.9488329708       -3.8960560917
 H         1.1035954127       -1.3598104846       -4.7647947305
 H         2.3971643121       -2.0134045459       -3.8488357342
 H         2.4598206324       -2.3836352601       -5.5036467755
 H        -1.1617516045       -6.0129690180       -0.9251623043
 H        -1.9381886508       -4.5933025316       -1.5209981096
 H        -0.3872329756       -7.8447953194        2.2761556184
 H        -0.6389537203       -8.4250367798        0.6095140383
 H         1.3357847653       -5.2898175570        2.8506047428
 H        -0.0715203329       -4.2451661361        3.1579638633
 H         1.0257136174       -3.7463147113        1.9786109654
 H        -1.9984907321       -6.7665411655        1.4791450464
 H        -1.4613855324       -5.9142824934        3.0790739983
 H        -2.3605129782       -5.1134516904        1.8107994072
 H         1.5627751429       -9.2751573499        0.2272994425
 H         2.2236892916       -8.3543809613        1.6638447578
 H        -0.3921292136      -12.3062524561       -1.5229600324
 H         1.1874938814      -11.2834233080       -1.7022522503
 H         1.2084283845      -13.0264611328       -1.0796719661
 H         3.3955854228      -11.7828782385        1.7939462445
 H         3.0793822464      -10.9833206266        0.1423462706
 H         2.8729113788      -12.7599489693        0.4417188100
 H        -0.0379542812      -12.8774425029        2.2167789886
 H         1.7091559988      -13.5180683399        2.0512094053
 H         1.1801441777      -12.3760528342        3.3074491718
 Na       -1.4382128897       -1.7104552046       -0.7256366991
