155

 C        -1.7808986242        5.1945904411        5.3423291235
 C        -1.7776451888        5.8254410867        3.9649823048
 C        -2.5862554614        7.0967212997        3.7224544757
 C        -1.8925287425        8.2300591699        2.6664652591
 C        -0.4091184769        7.9699618544        2.4760867765
 C        -3.9697887604        6.8399197036        3.0324135954
 C        -2.9763937671        7.7961228460        5.0350698439
 O        -1.1504901563        5.2606976987        3.0957243507
 O        -2.4744002455        9.2085499203        2.2472611229
 C         0.2993808854        9.1296453331        1.7277243000
 C         1.8422695103        9.2428520372        1.8547312540
 C         2.6397841037        9.5449958591        0.4766581145
 C         3.2367769623        8.2651187317       -0.1838084564
 C         3.9456588911        7.2990558569        0.7390431704
 O         2.4256083591        9.0917318870        2.9009534941
 O         3.0695761004        7.9539436108       -1.3603257709
 C         1.7454353055       10.4218698184       -0.3886017041
 C         3.7734512433       10.4772819937        0.9477819704
 C         3.9804433430        5.8078688936        0.2056887015
 C         3.0743527126        4.9058743075        0.9483932058
 C         3.0921862163        3.3722116352        0.6078057636
 C         1.6406603172        2.8516412920        0.8078786683
 C         1.3917402702        1.7721688409        1.9619072292
 C         3.3157067022        3.3026777064       -0.9334118045
 C         4.0958133397        2.5103656563        1.3073907756
 O         2.0973220527        5.3124397715        1.6259210346
 O         0.8189995067        3.2101675277        0.0512642798
 C        -0.1323710328        1.4085709749        2.2167507245
 C        -0.9413195806        0.7791183246        1.1072970294
 C        -2.3371276399        1.3519847945        0.7048638410
 C        -2.9925910500        0.4250059062       -0.4504400899
 C        -3.1313303747        0.9417524647       -1.9055756070
 O        -0.4616756477       -0.1980907296        0.4933996190
 O        -3.4683226359       -0.6678075459       -0.1260727236
 C        -3.3774708228        1.2981770219        1.8653390688
 C        -2.0274326625        2.7984448160        0.3464308692
 C        -4.1761173247        0.1092014290       -2.7243121938
 C        -3.7222115765       -1.2804558131       -3.0740853779
 C        -4.5139037350       -2.2479996631       -4.0395600324
 C        -3.8318479700       -2.2680701189       -5.5487391496
 C        -2.6223964514       -3.2418536265       -5.7450582114
 C        -4.3927528390       -3.7099416522       -3.4879815282
 C        -5.9892695020       -1.7841215350       -4.2338750087
 O        -2.5158726033       -1.5312030656       -2.8825581664
 O        -4.3005668822       -1.5754697391       -6.4155942928
 C        -1.2324021671       -2.6196565992       -5.5600830859
 C        -0.2640541601       -3.7794840608       -5.3113630996
 C         0.9306817994       -3.5350601841       -4.3225513392
 C         0.3126600255       -3.5634557166       -2.8945861237
 C        -0.2547358778       -4.8980752157       -2.3562350150
 O        -0.3029190526       -4.8308139901       -5.9630264505
 O         0.3176429277       -2.4934210266       -2.2692717845
 C         2.0327475032       -4.6488886235       -4.5319700347
 C         1.6719987072       -2.1970706867       -4.5192689408
 C        -1.1774191060       -4.8959032101       -1.1203582957
 C        -0.6646718991       -4.3722956143        0.1978156734
 C        -0.3588588092       -5.4499958341        1.2827419175
 C         0.2957523270       -6.7455246578        0.7377982916
 C         0.4511859141       -7.8457594398        1.8594319962
 C         0.7388823781       -4.8680761503        2.1610097130
 C        -1.6188443973       -5.6409472432        2.1114970313
 O        -0.5737959084       -3.1731100674        0.4695724335
 O         0.7767054516       -6.8110605042       -0.3724840123
 C         1.7444275693       -8.7708173484        1.6726903450
 C         1.5178792536      -10.1218119103        2.4401016450
 C         1.5952092383      -11.4103169763        1.4418395947
 C         0.5889172604      -11.2521523370        0.2787242676
 C         0.9614807844      -11.6681596434       -1.1644056273
 O         1.1571470826      -10.2022380629        3.5458747269
 O        -0.5657454743      -10.9287883893        0.5017309579
 C         3.1101664692      -11.5999179621        0.9776312720
 C         1.2206751812      -12.7448880011        2.2503484897
 H        -2.0406641995        4.1372635449        5.2336669368
 H        -0.7984864739        5.3181393011        5.8550484228
 H        -2.4439229625        5.6447421815        6.0905035389
 H        -0.0186649415        7.8093996280        3.5425250990
 H        -0.2270108833        7.0634040996        1.8889615063
 H        -4.7857445070        6.3267798669        3.5727464400
 H        -3.8144444561        6.3746758328        2.0919910230
 H        -4.3327501720        7.7884056728        2.7217307761
 H        -2.2734056112        7.8045983910        5.9018164344
 H        -3.2977504656        8.8305400459        4.8853814781
 H        -3.9049436067        7.3819885379        5.3924798225
 H         0.0524517276        9.2156653651        0.6211590241
 H        -0.1983816064        9.9528818663        2.1449516147
 H         4.9819149652        7.6705597178        1.0275423419
 H         3.4104729351        7.1040111789        1.7113053230
 H         1.0333731736        9.8074632319       -1.1094820202
 H         2.4297326093       10.9974142219       -1.0014715531
 H         1.1091633862       10.9625815591        0.2297693108
 H         3.3927767722       11.3670615135        1.4440119643
 H         4.2755637667        9.9800720145        1.7113335977
 H         4.5360101995       10.6175856653        0.1738664735
 H         4.9481482988        5.3729264094        0.1547933991
 H         3.7004520717        5.7734021164       -0.8223489817
 H         1.8601541535        0.7939330450        1.8653764475
 H         1.7954479069        2.1751548695        2.9548353533
 H         3.5380355012        2.2762973977       -1.3037359809
 H         4.2172415276        3.8297069505       -1.3687098258
 H         2.4188839241        3.5799708739       -1.4753365782
 H         3.9845642013        2.6913004765        2.3700222457
 H         3.8341043859        1.4217172577        1.1929458963
 H         5.1515450896        2.7078410351        1.1203440764
 H        -0.0387128126        0.6038837374        2.9590728996
 H        -0.7374449655        2.2955593920        2.5227977852
 H        -3.5006198859        1.9405291126       -1.9097157096
 H        -2.1727973362        0.9272241274       -2.4053511169
 H        -4.3403841864        1.4499351845        1.4097710477
 H        -3.0180051579        2.0609958095        2.5027439772
 H        -3.3575196481        0.4015902820        2.4270369655
 H        -1.2165374852        2.7807570463       -0.3928777558
 H        -2.8529024884        3.3963338763       -0.1140091758
 H        -1.8147594706        3.3699761856        1.2220457846
 H        -4.3709559131        0.6216316061       -3.6573704594
 H        -5.1624539208        0.2182366699       -2.1925587970
 H        -2.6938964027       -4.1186005174       -5.1681523796
 H        -2.6535111689       -3.4698486696       -6.8086532149
 H        -4.7399067145       -4.3924284660       -4.2752973846
 H        -5.1091214018       -4.0150721738       -2.7547541424
 H        -3.3176288699       -3.9942835217       -3.1926788432
 H        -6.4542945378       -1.6555917309       -3.2880558858
 H        -5.9512790025       -0.8217262224       -4.7753608398
 H        -6.5058311027       -2.5412573932       -4.8598416161
 H        -1.0195544513       -1.9189128958       -6.3166155676
 H        -1.2669829363       -2.1390942850       -4.6346681703
 H        -0.8024444614       -5.2628426962       -3.1856773157
 H         0.5292760456       -5.6872291997       -2.2239003279
 H         2.4717772592       -4.3963310196       -5.5080598985
 H         1.6619754899       -5.6868556229       -4.6392975841
 H         2.7891282538       -4.4849089599       -3.7973248332
 H         1.0881747624       -1.3365028257       -4.1334513219
 H         2.5371927376       -2.1241663544       -3.9817821426
 H         1.8683963713       -2.1912128424       -5.5664814869
 H        -1.6537337520       -5.8629151207       -0.9881445016
 H        -2.0343699906       -4.2353590877       -1.3737652247
 H         0.3686739724       -7.2833446387        2.8399136383
 H        -0.5753190552       -8.3062373162        1.7366346772
 H         0.6828473848       -5.4051083913        3.1279784960
 H         0.5059503848       -3.8463828231        2.3228624961
 H         1.6256492408       -4.9444486891        1.5500889498
 H        -2.4719438318       -5.8205167232        1.4805669745
 H        -1.5553245535       -6.4903481269        2.6909735603
 H        -1.7442866229       -4.6832798659        2.6145079887
 H         1.9798437195       -8.9923759294        0.5913505683
 H         2.6238061858       -8.3265943962        2.1664125756
 H         0.8430492674      -10.7678583436       -1.7397309835
 H         1.9352138749      -12.0360712492       -1.1849743564
 H         0.2602215093      -12.3758893655       -1.5532602556
 H         3.7210230709      -11.3335618378        1.7730308181
 H         3.2641173460      -10.9505720991        0.1389177862
 H         3.2670211816      -12.6110567211        0.5901184888
 H         1.3896635479      -12.6241745170        3.2783094264
 H         0.1316658167      -12.8248209037        2.2162820405
 H         1.8355020062      -13.4699315550        1.8513109092
 Na       -1.2451164879       -1.5203317058       -0.9826745187
