155

 C        -2.0510863278        4.6796629590        4.8253664223
 C        -2.9940128555        5.2625803136        3.7541782772
 C        -3.3487378269        6.8124334314        3.8175238618
 C        -2.5461496474        7.6601843903        2.7514314984
 C        -1.0363047902        7.7012677293        2.9376466570
 C        -4.8812598671        6.9146501876        3.3641260864
 C        -3.2255180188        7.4080866918        5.2881698484
 O        -3.4258138080        4.5973536580        2.8272495014
 O        -3.1854430771        8.1827490755        1.8765466663
 C        -0.2318699661        8.8660651764        2.4326181908
 C         1.3860478838        8.8551335137        2.7658540982
 C         2.3490011861        9.2577919993        1.4325540308
 C         2.3444328703        7.8931942788        0.6762024222
 C         3.6933902437        7.2116295155        0.5533592981
 O         1.8629679142        8.6159838499        3.8687708262
 O         1.2502198914        7.3621597220        0.2512678009
 C         1.9532419678       10.5015666270        0.6362544563
 C         3.8071570469        9.5923263402        1.8996750448
 C         3.5034793044        5.7079588281        0.1952227718
 C         3.5539274784        4.7703432119        1.3992728173
 C         3.5863592761        3.3121756584        0.9938433017
 C         1.8781874913        3.1233114090        0.5993558979
 C         1.0825653980        2.0615006949        1.4376411878
 C         4.2936643476        2.9472253217       -0.3416561713
 C         4.0566738835        2.4517515809        2.1543968268
 O         3.4139261055        5.0629754642        2.5836513412
 O         1.5183539856        3.8100364110       -0.2801849515
 C        -0.4643988765        2.2556448784        1.5847584990
 C        -1.3209613396        1.3702252590        0.6721914066
 C        -2.8277075081        1.7598248443        0.2833238447
 C        -3.3569347893        0.7324518946       -0.8257870533
 C        -3.7308947794        1.1493335367       -2.2413292175
 O        -0.8378147853        0.3200785131        0.3285375874
 O        -3.5997056933       -0.3820921464       -0.3222672581
 C        -3.8510844987        1.5686417735        1.5037859638
 C        -2.8413132274        3.2494106755       -0.2006787843
 C        -4.6475042474        0.1577337470       -2.9701859056
 C        -3.8996492058       -1.0046147228       -3.5508518737
 C        -4.1033538433       -1.4674082678       -5.1066917608
 C        -2.7501956444       -1.6844030665       -5.9189963700
 C        -1.7902081356       -2.7406218698       -5.2483957386
 C        -4.9486622254       -2.7329745840       -4.9358054325
 C        -4.8888654482       -0.3586780033       -5.8035033310
 O        -3.0667414929       -1.6295848875       -2.9037988731
 O        -2.5310307640       -1.0251435491       -6.9025066115
 C        -0.5297935385       -3.0899287179       -6.1104614963
 C         0.2280534004       -4.1619192418       -5.3475087737
 C         1.3826991698       -3.7614554899       -4.3275041482
 C         0.5913740430       -3.4532847325       -2.9561959781
 C         0.1836562926       -4.6928013693       -2.1187177085
 O         0.0213214470       -5.3165161020       -5.4425649428
 O         0.2632896005       -2.2808793705       -2.6386515637
 C         2.3544315889       -4.9393625238       -4.1863980530
 C         2.1644283096       -2.5509285982       -4.7927439909
 C        -1.1434639737       -4.6811265501       -1.2568928632
 C        -0.7891070647       -4.4716755076        0.2169479233
 C        -0.3840679414       -5.6023266381        1.3221504557
 C         0.3838145344       -6.8550248802        0.7278594574
 C         0.8390312065       -8.0047496553        1.5716476813
 C         0.2966327234       -4.8773169674        2.4505103818
 C        -1.8496893024       -6.0909488893        1.8801333786
 O        -1.0205488987       -3.3789780183        0.6628253425
 O         0.7326521772       -6.8659480001       -0.4554715079
 C         2.0258934418       -8.7432214966        0.9999982361
 C         2.2942899341       -9.8873593812        1.9810105764
 C         2.4166778490      -11.3577454626        1.4812480152
 C         1.3587704899      -11.4141192830        0.2706294645
 C         1.7650635319      -11.7240790406       -1.1348054588
 O         2.4577026184       -9.6341926209        3.1616115515
 O         0.2179962407      -11.0096626513        0.5778365239
 C         3.8871916272      -11.6281529425        0.9029298215
 C         1.9868938664      -12.2730883572        2.6446402003
 H        -1.9430388804        3.6496354246        4.7267501532
 H        -1.0599712517        5.0773259759        4.8542112297
 H        -2.4823884621        4.7538129444        5.8011474187
 H        -0.8482166102        7.5360546489        4.0445725464
 H        -0.5953736213        6.7122216466        2.5758275230
 H        -5.6282940623        6.3797442489        4.0161001682
 H        -5.0972304238        6.4091077264        2.4300500604
 H        -5.1926457340        7.9537221398        3.2108657899
 H        -2.1749943746        7.3931384603        5.5617649212
 H        -3.6908301339        8.4161044127        5.3150477835
 H        -3.8650568838        6.8254388388        5.9280486951
 H        -0.4157887234        8.8755983203        1.3321324588
 H        -0.6813155520        9.7736658543        2.8005548753
 H         4.1812868912        7.5852824553       -0.3690277540
 H         4.5396903684        7.2018754122        1.3089158345
 H         0.9226599475       10.5236720076        0.1478266000
 H         2.6222440319       10.5080916451       -0.2265909719
 H         2.1017912306       11.3887012576        1.1935000274
 H         3.9326859514       10.6357836125        2.2438109592
 H         4.1188415690        9.0663191607        2.7710267927
 H         4.5336830807        9.3872242998        1.0393557492
 H         4.3878331482        5.3440089682       -0.3982876811
 H         2.5920625846        5.4005640255       -0.3365650344
 H         1.3949421988        1.0882695563        0.9362353083
 H         1.5160365853        2.0963050887        2.5059378678
 H         4.1675453275        1.8831340007       -0.4761853230
 H         5.3587052465        3.0748170432       -0.1711479814
 H         3.9175925480        3.4477007943       -1.1634032245
 H         3.7107558094        2.8490089567        3.0942364857
 H         3.6911585488        1.3638394808        2.0352504416
 H         5.1297930682        2.5438779679        2.0805087321
 H        -0.9108286927        1.7912153228        2.5510872595
 H        -0.6719121097        3.3285782754        1.7850927801
 H        -4.3201865067        2.0077802819       -1.9662569368
 H        -2.9670108313        1.5073532356       -2.8524698173
 H        -4.8732163921        1.8092276901        1.1158018049
 H        -3.5547370849        2.3158069342        2.2864550014
 H        -3.7751622034        0.5516081315        1.9164346612
 H        -2.0664831146        3.3158196238       -0.9802378127
 H        -3.8064488869        3.4053777203       -0.6756715832
 H        -2.6676490338        4.0569951034        0.4995467532
 H        -5.1930504289        0.7683344172       -3.6831374192
 H        -5.3741676452       -0.3308150658       -2.2679726377
 H        -1.5588044132       -2.4024889875       -4.2440004369
 H        -2.3389910717       -3.6452938039       -5.0801928650
 H        -4.8500471182       -3.5786073136       -5.5915738497
 H        -5.9467115030       -2.4038439728       -5.2280261532
 H        -4.8996037594       -2.9705721462       -3.8441234582
 H        -5.8089574045       -0.2639289420       -5.2965473031
 H        -4.2947092836        0.5712568549       -5.8178884692
 H        -5.0726479555       -0.6487350904       -6.8677363380
 H        -0.8326107931       -3.3907916167       -7.0253589476
 H         0.0771977055       -2.2186833085       -6.3084997601
 H         0.0956123105       -5.5876693221       -2.7287856046
 H         0.9462019017       -4.8763925745       -1.4329001426
 H         2.7822471542       -5.4176427041       -5.0973259795
 H         2.0470109524       -5.8347038456       -3.5859922668
 H         3.1476104734       -4.6295332796       -3.5681435279
 H         1.4761106688       -1.9200534587       -5.4345355962
 H         2.3540767881       -1.8676307596       -4.0228867306
 H         3.0976335133       -2.8987056257       -5.2419043631
 H        -1.7872505841       -5.5375765265       -1.3922360366
 H        -1.7503162527       -3.8239147988       -1.5868730177
 H         0.9751444689       -7.8284093808        2.6496106145
 H        -0.0842930164       -8.7181317352        1.5630498146
 H         0.1714543065       -5.3108098756        3.4967477643
 H        -0.0393722607       -3.8066903927        2.5178991522
 H         1.4409980747       -4.8878388211        2.2844508769
 H        -2.5381627967       -5.8837363456        1.0409045986
 H        -1.8180932042       -7.0835786623        2.2396163365
 H        -2.3620489721       -5.4550488624        2.6709471783
 H         1.8119609283       -9.0803268663       -0.0305164891
 H         2.8137491207       -8.0028329625        1.0541392239
 H         1.0641105655      -11.1355788103       -1.7207936291
 H         2.7623283847      -11.4304741538       -1.2889364367
 H         1.5379734311      -12.7747273172       -1.3091453385
 H         4.5422171246      -11.7511921919        1.7418324313
 H         4.3193256362      -10.6817197421        0.3866197500
 H         4.0018446916      -12.4306203487        0.1446590344
 H         2.6535829738      -13.2018792903        2.6955435161
 H         2.0362059248      -11.7179468534        3.6376223793
 H         0.8662661289      -12.4359166216        2.6729112895
 Na       -1.4295073666       -1.4457139414       -0.9999727924
