155

 C        -3.1092293182        4.4099886646        5.4576212369
 C        -3.4307405212        4.9615883575        4.1210508104
 C        -3.7951789274        6.4788403773        3.9074807816
 C        -2.6477103076        7.1718983771        2.8722558370
 C        -1.2009127057        7.4307839499        3.3642483561
 C        -5.0596377037        6.6579971611        3.1686055338
 C        -3.7833087744        7.2917103658        5.2405267663
 O        -3.5056756361        4.2334270486        3.1512097851
 O        -2.8939575106        7.4579120334        1.7570420480
 C        -0.7614517228        8.8815181539        2.8546518927
 C         0.6889369476        9.0254362791        3.2833833642
 C         1.9089583085        8.9597215544        2.2549070877
 C         2.1359891928        7.5721051955        1.8016201103
 C         3.4809943784        7.1683967488        1.2538957254
 O         0.8893947215        9.0417321590        4.5009621855
 O         1.2147284946        6.7877970901        1.6932147513
 C         1.4688752315        9.6708982592        0.8852917615
 C         3.3131359259        9.6111986849        2.6878313304
 C         3.5602865442        5.7698978344        0.5148891840
 C         3.8541353703        4.5443264461        1.3715048870
 C         3.4226937430        3.0199818067        0.8164195693
 C         2.0011518193        3.0480997562        0.2136778358
 C         0.8707239878        2.1467328698        0.7314679237
 C         4.3338739819        2.7787261151       -0.4720893525
 C         3.6663615547        1.9060958159        1.8219836713
 O         4.4365933652        4.5227932382        2.4234932272
 O         1.7954737285        3.8361342669       -0.6341277217
 C        -0.5909950701        2.7138326932        0.3575454347
 C        -1.4640025244        1.4566763008        0.0126808762
 C        -3.0280591795        1.5278132120        0.2456441843
 C        -3.5687198609        0.6681519015       -0.8959859723
 C        -3.5928080893        1.1908151258       -2.3263920623
 O        -0.9190406485        0.3783178437       -0.1566779841
 O        -3.8052931971       -0.4912689355       -0.7128733171
 C        -3.2716424156        1.0514059124        1.6715729036
 C        -3.6368446457        2.9433731351        0.0751904489
 C        -4.3530472900        0.1811993576       -3.2403001644
 C        -3.3847231558       -0.7466294779       -4.0958672298
 C        -3.5892950669       -1.1445162894       -5.5905901074
 C        -2.1554140879       -1.7472523662       -6.0653777211
 C        -1.7537697902       -3.2132994685       -5.6976459672
 C        -4.7877086318       -2.2027604124       -5.7902992514
 C        -3.9856885243        0.1159276617       -6.4479267592
 O        -2.3627970425       -1.0792469422       -3.5050573521
 O        -1.4513155444       -1.1099225296       -6.7937082249
 C        -0.3860141307       -3.5845475676       -6.3203639709
 C         0.7621152240       -3.9336553763       -5.3513610090
 C         1.1674526611       -3.0069786576       -4.1207309044
 C         0.2468559608       -3.3247575856       -2.9346449563
 C         0.1891101523       -4.7612425423       -2.3512761577
 O         1.3794704423       -4.9264750567       -5.5081537339
 O        -0.3968897963       -2.3937292843       -2.5028610451
 C         2.5919238698       -3.2783432802       -3.6380368518
 C         1.0051322104       -1.5303881149       -4.4704301162
 C        -1.0660389507       -5.0388626240       -1.5836570213
 C        -1.0436824831       -4.6418117162       -0.0436974176
 C        -0.5105402727       -5.5890848925        0.9668582684
 C         0.8217893333       -6.3776204175        0.6517887915
 C         0.8924475630       -7.7208746985        1.3534811083
 C        -0.3474798384       -4.8231116882        2.3482889265
 C        -1.7155894499       -6.6558575190        1.1996848861
 O        -1.5151956182       -3.5847804489        0.3136423605
 O         1.6717532789       -6.0205858729       -0.1358828523
 C         2.4443386044       -8.2509555098        1.3494115581
 C         2.4679593960       -9.5504632204        2.1365899501
 C         2.8220867799      -10.8684166940        1.4118249489
 C         1.5446137822      -11.4121596543        0.5711350433
 C         1.5733997472      -12.8067443642       -0.0942429728
 O         2.1294882999       -9.5978037285        3.2962741426
 O         0.5760852351      -10.6500322566        0.4940940450
 C         4.1456909953      -10.8983502123        0.6427913197
 C         3.0199645239      -11.9256179426        2.5644659950
 H        -2.7237993319        3.4285549263        5.3406480901
 H        -2.4065723569        5.0104717519        6.0290843993
 H        -3.9624386334        4.4186955556        6.0750388814
 H        -0.9540243763        7.4204447971        4.4359992574
 H        -0.4677476729        6.7746343763        2.7509908600
 H        -5.9393847583        6.4096166286        3.7551382116
 H        -5.0747141936        5.9962928209        2.2861419850
 H        -5.1988192443        7.7097990576        2.7119875598
 H        -2.9984314669        6.9758650043        5.8402052013
 H        -3.6149662834        8.3739531390        4.9493292408
 H        -4.7845260545        7.1425415353        5.6967178659
 H        -0.9648302549        8.8777021157        1.8348722385
 H        -1.3402335300        9.6817096009        3.3626188448
 H         4.0919527215        7.9769811345        0.7244269426
 H         4.1495623950        7.1326890996        2.1471576037
 H         0.4926538389        9.1949787867        0.5500230790
 H         2.1769712225        9.4525652721        0.1480481232
 H         1.3919298856       10.6970346597        0.9109729695
 H         3.0569246472       10.5541016672        3.1936725999
 H         3.8741911463        8.8872836799        3.2443179394
 H         3.8364408042       10.0106519147        1.7871309369
 H         4.5028948649        5.8137798962       -0.0510973956
 H         2.7403038230        5.5353039345       -0.2084363625
 H         1.0746221141        1.0852113719        0.3442020417
 H         1.0204007551        2.1455211513        1.8450581852
 H         4.3867091798        1.7077945152       -0.5081591784
 H         5.3269583930        3.1425065697       -0.3452650415
 H         3.9068694250        3.2302434733       -1.2956412344
 H         2.9500935192        1.9838060821        2.6194742113
 H         3.5467565922        0.9623489736        1.2637783322
 H         4.7063609310        1.8706962756        2.0999033785
 H        -1.1369926825        3.3364103223        1.0837627716
 H        -0.4114648791        3.3767158411       -0.5846056898
 H        -4.1778620125        2.0618398064       -2.2533135853
 H        -2.5708520475        1.3486356008       -2.5793984829
 H        -4.3824167848        1.1491856355        1.8057389481
 H        -2.9018150287        1.7427151666        2.4730039048
 H        -2.9412791266        0.0273809397        1.8929618273
 H        -3.1557363461        3.3311419259       -0.8049203728
 H        -4.6915250987        2.9047469661       -0.1486768399
 H        -3.4331225129        3.6831481527        0.8882077694
 H        -5.0137123254        0.7991715213       -3.9098456315
 H        -4.9999809805       -0.4207030123       -2.6245090930
 H        -1.7837792431       -3.4152754615       -4.6620460101
 H        -2.4079302087       -3.8749211040       -6.1885955958
 H        -4.8421048443       -2.4661969264       -6.8202901684
 H        -5.6859933775       -1.6229814501       -5.4017003045
 H        -4.7021704959       -3.1743391826       -5.3526359152
 H        -4.9556881487        0.5565499151       -6.2614057748
 H        -3.2007777339        0.8410830837       -6.3871509927
 H        -3.9838762601       -0.2192195790       -7.4761949336
 H        -0.6258355161       -4.4001580182       -7.0264171564
 H        -0.0188589847       -2.7171859578       -6.8378008681
 H         0.1203765600       -5.4021174809       -3.1990256126
 H         1.1191788095       -5.0560475739       -1.8883391393
 H         3.3514090023       -2.9300603444       -4.3685719495
 H         2.8977365675       -4.2966263026       -3.3254669087
 H         2.9017504206       -2.7023011455       -2.7979870016
 H        -0.0157941163       -1.2088100688       -4.8745739016
 H         1.4818046719       -0.8229596450       -3.8339209031
 H         1.6189018362       -1.5082243429       -5.4023274081
 H        -1.2464794785       -6.1295171163       -1.6099552317
 H        -1.8782856607       -4.5247610336       -2.0892791466
 H         0.6131874325       -7.6505051800        2.4178410742
 H         0.2094680377       -8.4958379626        0.9135190178
 H         0.5122675438       -4.1193441544        2.4119948281
 H        -0.2736727174       -5.3552899711        3.2793809395
 H        -1.2451356291       -4.1767195960        2.5737291813
 H        -1.5854593131       -7.5145999271        0.4950733375
 H        -1.8142057135       -7.0827630713        2.1703196879
 H        -2.7267771699       -6.2026693651        1.0823395617
 H         2.8162629075       -8.2270097484        0.3045254408
 H         3.0526198180       -7.4269411884        1.8142064526
 H         1.5325708485      -13.4930016036        0.7779959945
 H         0.6520005036      -12.9139837915       -0.6764860346
 H         2.4985774934      -12.9609186717       -0.6954624397
 H         4.9696135997      -10.5261301692        1.2829907371
 H         4.2446878366      -10.3334248047       -0.3145932978
 H         4.5920962829      -11.8671301592        0.4964353487
 H         3.1154252342      -13.0630173752        2.3932469613
 H         3.9835628558      -11.6753695089        3.0720101287
 H         2.2257595820      -11.9300334585        3.3988622596
 Na       -1.8290643136       -1.6109493842       -0.9900454712
