155

 C        -3.2429902039        4.5915277912        5.6387720941
 C        -3.4039990409        4.9481638604        4.1709982144
 C        -3.7522634671        6.3464769606        3.8729632160
 C        -2.6795183022        7.1064326574        2.9551275748
 C        -1.4465240060        7.4315007184        3.6529806411
 C        -5.0762488250        6.4922835156        3.0830213291
 C        -3.9560373751        7.2739607709        5.1474855601
 O        -3.4220847418        4.0567208391        3.3004431029
 O        -2.9697303462        7.4434444049        1.7868320004
 C        -0.7059460756        8.5402169832        2.8252422572
 C         0.6943035163        8.8333072869        3.3115835699
 C         1.8212044333        8.8045331238        2.3029621402
 C         2.0777207821        7.2713928508        1.9266508060
 C         3.4477150576        6.8698577413        1.4629237663
 O         0.8883991371        9.2244225939        4.4552655899
 O         1.1590273683        6.4745640385        1.9426060541
 C         1.3551270979        9.7195838455        1.1429894209
 C         2.9671546004        9.6442155705        3.0323842341
 C         3.6765421179        5.7201295854        0.5368638842
 C         3.8476824903        4.3479843605        1.3342848571
 C         3.3968849540        3.0564528643        0.5809616682
 C         1.9808725060        3.2442894754       -0.0747718173
 C         0.7932130606        2.5503557170        0.6692466804
 C         4.3210031107        2.6090468018       -0.5105786174
 C         3.3535991571        1.9694713267        1.6850016527
 O         4.0307863767        4.3038628970        2.5413949305
 O         1.7168064213        3.9668388068       -1.0579798835
 C        -0.5249865083        2.7802574875        0.0629327335
 C        -1.3997014961        1.4578423272       -0.0122087925
 C        -2.9611618157        1.5928345952        0.1289519192
 C        -3.5328199321        0.6310292194       -0.9498513846
 C        -3.6590114754        1.0789082273       -2.4148631605
 O        -0.8307102257        0.3764785138       -0.1624227909
 O        -3.7924014648       -0.5613523443       -0.6793788593
 C        -3.4672965139        0.9247527960        1.4983467849
 C        -3.4591669206        3.0301061960        0.0242232482
 C        -4.2333237825        0.1651234016       -3.4185771769
 C        -3.2126428406       -0.7047422511       -4.0409771083
 C        -3.4929162584       -0.9847762398       -5.7481026120
 C        -2.0492964188       -1.5743774860       -6.2192534242
 C        -1.6171455297       -2.9765471083       -5.5942514266
 C        -4.6288140422       -2.0661551850       -5.6245127051
 C        -3.8307991116        0.3190188960       -6.4943339677
 O        -2.3464372791       -1.2358909609       -3.3992471964
 O        -1.2867515647       -0.8755929832       -6.8261845631
 C        -0.3140738820       -3.5846774507       -6.2695857190
 C         0.8353619503       -4.0208597305       -5.3281490783
 C         1.2190657819       -2.9454362844       -4.2460141098
 C         0.3293329951       -3.2287943435       -2.9781622705
 C         0.3493955588       -4.6469268433       -2.3090406444
 O         1.4809617132       -5.0657918840       -5.4564569032
 O        -0.2752901132       -2.2934107376       -2.5101958968
 C         2.7084452353       -3.0832207490       -3.7674382410
 C         1.0863966471       -1.4777433761       -4.8143074894
 C        -1.0230237330       -4.9257793734       -1.6419511181
 C        -1.1949340229       -4.6975665495       -0.1225755762
 C        -0.6482419189       -5.6701000200        0.9889662007
 C         0.8553257031       -6.2692148689        0.7414098715
 C         1.1840202992       -7.6008672781        1.4035981122
 C        -0.3630483460       -4.9318796234        2.4112889033
 C        -1.7627094621       -6.8011093240        1.0359320042
 O        -1.7268307555       -3.6777683737        0.2859268811
 O         1.6553654745       -5.6352739830        0.0755839372
 C         2.5568429992       -8.2077411645        1.4073390881
 C         2.4803526422       -9.4570320094        2.2069920876
 C         2.7659484482      -10.9312686844        1.5332159870
 C         1.5796550794      -11.4772628997        0.6711396922
 C         1.7550042433      -13.0270209998        0.2589578994
 O         2.0350581651       -9.4709018316        3.3499823628
 O         0.7923807285      -10.7344061453        0.1685073413
 C         3.8402719870      -10.7178364811        0.3712059432
 C         3.2521623817      -11.8395009790        2.6615501989
 H        -2.7368885313        3.5991496367        5.7558839266
 H        -2.6069447266        5.1922366222        6.2719717085
 H        -4.2371281735        4.5613080035        6.1004711507
 H        -1.5394185610        7.8768603876        4.6212994726
 H        -0.9511391592        6.5369075341        3.6510642724
 H        -5.9132378798        5.9071431103        3.4793456665
 H        -4.9831247363        6.1135450471        2.0668524231
 H        -5.3239985112        7.5102472172        3.0095720634
 H        -2.9539822337        7.6584210706        5.5064102095
 H        -4.5787081143        8.0722229126        4.8678415185
 H        -4.5206327392        6.7112792813        5.8890175295
 H        -0.7052980687        8.1054474281        1.7770030098
 H        -1.3315397071        9.4165625576        2.8688066104
 H         4.0332431666        7.6913708498        1.1265491754
 H         4.0297010023        6.7085372933        2.3930351900
 H         0.8048095242        9.2317465778        0.3808009263
 H         2.1921452442       10.3095444807        0.6452524346
 H         0.7266417552       10.5224561051        1.6597784879
 H         2.7891263467       10.7085446030        2.9158127166
 H         2.9332010791        9.3937762769        4.1416721665
 H         3.8405803686        9.4339876456        2.4926950510
 H         4.6331713532        5.9468191181        0.0775721612
 H         2.8876796567        5.6269077813       -0.1661881814
 H         1.0270681451        1.5273609095        0.6879384146
 H         0.7598283431        2.8577084508        1.6858919555
 H         3.8512146951        1.8129620988       -1.0421987950
 H         5.1768114318        2.1620175887       -0.0240204266
 H         4.6095359357        3.4802703815       -1.1725064907
 H         2.8950842786        2.3935073090        2.6022788694
 H         2.7913835419        1.1017312411        1.3827821587
 H         4.3739840572        1.5600765440        1.7332432428
 H        -1.0911332487        3.4611564882        0.6882226668
 H        -0.4669278341        3.1683176719       -0.9114360393
 H        -4.4352274044        1.9187996536       -2.2892912884
 H        -2.6132245329        1.4739189250       -2.6626639486
 H        -4.4570748016        0.5601915180        1.5976503255
 H        -3.4768915016        1.6826909203        2.2831671501
 H        -2.6732904572        0.2241126578        1.7506538196
 H        -3.0413750510        3.6390050945       -0.7935286909
 H        -4.5687645606        3.0430512762        0.0764885282
 H        -3.0506575349        3.5136825764        0.8886214631
 H        -4.5552170657        0.7955834387       -4.2081632434
 H        -5.1447286917       -0.3447476074       -3.0513645685
 H        -1.4255779254       -2.7414172411       -4.5174333384
 H        -2.4468440052       -3.7372153543       -5.6146116694
 H        -5.3075910629       -2.0828258128       -6.5255469864
 H        -5.1940100744       -1.9343692440       -4.7461804609
 H        -4.1895140944       -3.0573507045       -5.8182943424
 H        -4.8179946251        0.5961916887       -6.0785664979
 H        -3.0521181664        1.1002936116       -6.3473616487
 H        -3.9986052929        0.2739904619       -7.5867618755
 H        -0.6582023872       -4.4555641398       -6.8397494790
 H        -0.0364430335       -2.7268334464       -6.9763915577
 H         0.5133010633       -5.4565762491       -3.0815838888
 H         1.2835572023       -4.6465943969       -1.7225320087
 H         3.3701666825       -2.4739676249       -4.3106964366
 H         3.0846586533       -4.0523302835       -3.8936885713
 H         3.0162949598       -2.9218944729       -2.7222158875
 H         0.1525460701       -1.0989156703       -4.6855977598
 H         1.7619388798       -0.8669454707       -4.1991288585
 H         1.3429606751       -1.2534711217       -5.8064776429
 H        -1.1963698315       -6.0178667449       -1.6531163056
 H        -1.7689094112       -4.3273502808       -2.2381680465
 H         0.8798712471       -7.5673105853        2.4546695748
 H         0.5820945770       -8.3669867550        0.9481969998
 H         0.6950418567       -5.0535734911        2.6451599927
 H        -0.8495570543       -5.2203497870        3.3584172097
 H        -0.4976602866       -3.8770115865        2.4925353377
 H        -1.8112508181       -7.2749902411        0.0628783549
 H        -1.7396939299       -7.5148924391        1.9040349271
 H        -2.7338956426       -6.3888116255        1.1505268546
 H         2.8246682114       -8.3246794512        0.3477559072
 H         3.2069856966       -7.3920510206        1.7381184810
 H         1.9054961710      -13.7496772810        0.9910709354
 H         0.8648559543      -13.2121880553       -0.3020095816
 H         2.5243112063      -12.9855165711       -0.4365711047
 H         4.7343513453      -10.1339898195        0.5722574148
 H         3.3645450309      -10.3141628142       -0.4857152885
 H         4.3546840089      -11.6358071516        0.0262654624
 H         3.3755240419      -12.7956226801        2.3368117790
 H         4.1862148240      -11.6019648320        3.1182025367
 H         2.6041180821      -11.9142606621        3.4921152334
 Na       -1.9500304084       -1.7535125842       -0.8978488511
