155

 C         2.6367921570       -7.9932517715       -2.0941233023
 C         2.8383914379       -8.4906918802       -0.6561043877
 C         3.2517424034       -7.4238992294        0.4115497991
 C         2.0553203463       -6.6827029991        1.0109227580
 C         1.8473038836       -6.7057462911        2.6294152255
 C         4.0387041450       -8.1901528777        1.5233010265
 C         4.2116034162       -6.1831094042       -0.0709129317
 O         2.6942598498       -9.6535178400       -0.3576406027
 O         1.2048136804       -6.0924097234        0.3558653142
 C         1.0497872891       -5.4575779097        3.0640053571
 C         1.9716947793       -4.1658146654        2.8742891285
 C         1.3020795896       -2.7368145670        3.2721562700
 C         2.3924050464       -1.6759490643        3.6062368375
 C         3.4478651351       -1.3205232785        2.6706015835
 O         3.1063027138       -4.2246919111        2.4762462992
 O         2.1896183291       -0.9654776747        4.5940720539
 C         0.5337152694       -2.4288536783        1.9076687964
 C         0.2682096973       -2.8328500712        4.4360064838
 C         3.9455267390        0.1900888543        2.7592197791
 C         2.9613630795        1.0494786596        2.0117951741
 C         2.5922155664        2.5007655281        2.5485363811
 C         2.5715431309        3.6058449142        1.3395524204
 C         3.5248101414        4.7994407981        1.3124475517
 C         1.0498871819        2.2916262610        3.0215620353
 C         3.5264264143        2.9437978016        3.7526282239
 O         2.3540287488        0.5288138086        1.1143885074
 O         1.8244873743        3.4225560919        0.4437685804
 C         3.8928938241        5.1461384568       -0.1621462826
 C         5.0853972139        4.2606617963       -0.6320737627
 C         5.6152499457        4.3764638239       -2.0719073445
 C         5.3189959766        3.0092947508       -2.8459173114
 C         5.9278490011        1.7705482628       -2.2445481606
 O         5.5862782341        3.4911178340        0.2019390960
 O         4.8406773396        3.0547844808       -3.9417588297
 C         4.9494741111        5.3840196708       -2.9356162321
 C         7.0971790694        4.5588009538       -1.9925533297
 C         5.2225185152        0.4872768183       -2.8808132752
 C         3.7152052838        0.7160097851       -2.7489789082
 C         2.6796871738       -0.1546632990       -3.5814142080
 C         1.2587426941        0.5408118762       -3.6054895349
 C         0.9826161158        1.4044104465       -4.8298718596
 C         3.2609249165       -0.4294686944       -4.9960488486
 C         2.4981420043       -1.4209793285       -2.7255393766
 O         3.3443073220        1.4552686137       -1.8243120623
 O         0.4769519861        0.3552855906       -2.6941747050
 C        -0.3415609328        2.3016066452       -4.6530449144
 C        -0.2756082257        3.0075071463       -3.2290206896
 C        -1.6534469069        3.2883470000       -2.5711496093
 C        -2.0558456480        1.9421613086       -2.0046184987
 C        -3.2448049866        1.1423217018       -2.3367786149
 O         0.7843935176        3.2836978965       -2.7119808920
 O        -1.2279442126        1.5002005728       -1.2452414485
 C        -1.4606185248        4.0993874631       -1.2963627375
 C        -2.4869283412        4.0145475468       -3.6232290286
 C        -4.5673850977        1.7432709717       -1.8314018311
 C        -4.7306453571        1.3781691382       -0.3145785124
 C        -5.8675469653        2.0449101746        0.4784824108
 C        -7.2016451921        1.2492942768       -0.0648005749
 C        -7.4840753321       -0.2315572773        0.3738324868
 C        -5.6096654026        2.0209006244        1.9872385782
 C        -6.0286573321        3.5557149130        0.0871340478
 O        -3.8610838124        0.6950232524        0.1464696914
 O        -7.7539144588        1.7805439422       -0.9794644527
 C        -8.6786165377       -0.7850526234       -0.4039233454
 C        -9.8576985942       -1.3777701582        0.4308311219
 C       -10.7764145104       -0.4065664336        1.3071381234
 C       -10.3890806819       -0.6497874810        2.7664660827
 C       -11.2347350845       -1.5304378569        3.6947607505
 O       -10.1156537618       -2.5474685206        0.3461011622
 O        -9.3417829887       -0.1358726493        3.0817244629
 C       -10.4331964350        1.1509903333        0.9650117727
 C       -12.2666379219       -0.6666451246        1.0238866482
 H         2.2426442904       -8.9263371577       -2.6327366730
 H         1.9964637252       -7.0651241289       -2.2042025701
 H         3.5875076098       -7.7773064609       -2.5205969562
 H         1.2747540154       -7.6902583279        2.8628017009
 H         2.8013956696       -6.7095562723        3.1702063778
 H         4.2544574882       -9.2590992519        1.1944788760
 H         3.6739439612       -8.1311641636        2.5396916287
 H         5.0020014087       -7.6876946496        1.5802194177
 H         3.8275107807       -5.3972131119       -0.7441213615
 H         4.3204031546       -5.5258589206        0.7653418167
 H         5.1639012048       -6.4898141963       -0.4346922375
 H         0.1747636415       -5.3897922865        2.3820311971
 H         0.6639717069       -5.5030630626        4.0909504966
 H         4.2733953159       -2.0082579930        2.8462256967
 H         3.1970014572       -1.5359557409        1.6419767591
 H         1.0457588731       -2.7052029540        0.9984021542
 H         0.5921921380       -1.3879838278        1.8015241371
 H        -0.5099989173       -2.8749103227        1.9291006611
 H        -0.5035356178       -3.5712739751        4.1119258556
 H         0.7013038204       -3.2754678069        5.3018514775
 H        -0.1444785460       -1.8712026819        4.6425771203
 H         4.8859095167        0.2555448895        2.2336278154
 H         3.9683670348        0.3518032619        3.8537000646
 H         3.0463289863        5.6600584384        1.8609320912
 H         4.4201567409        4.4769293406        1.9668530113
 H         0.7525957192        3.1427697260        3.6123763017
 H         0.9877262315        1.4321040203        3.6311257517
 H         0.4440805452        2.2146694959        2.1109330140
 H         3.2074431770        2.3844566197        4.6824571963
 H         4.5493618757        2.8691923646        3.3907221987
 H         3.4319897853        4.0075358607        3.7359936937
 H         2.9293252469        5.0032188849       -0.7239351413
 H         4.2306019188        6.1780062463       -0.2561404487
 H         7.0280333523        1.6266925936       -2.3817099496
 H         5.7395674900        1.6830257621       -1.1561607802
 H         5.0227467127        6.3960680883       -2.6695650431
 H         3.9432289454        5.1539040383       -3.0101267986
 H         5.2404065559        5.3101676240       -3.9921579759
 H         7.7135065386        4.3465644144       -2.8860302606
 H         7.2598080061        5.6353996763       -1.7908045275
 H         7.5329697575        4.1339994828       -1.0641885966
 H         5.6357671186       -0.5131385505       -2.7197611470
 H         5.4991001827        0.5399998096       -3.9023245156
 H         1.8090573854        2.1180753445       -5.0364180262
 H         0.8468685197        0.7511017624       -5.6849713257
 H         4.3291854700       -0.9241852722       -4.8551367412
 H         3.5053717851        0.5211757009       -5.5778982885
 H         2.6565685384       -1.0811347776       -5.6421707838
 H         3.1861837121       -2.1706981935       -3.0664659650
 H         2.6860771903       -1.2691214130       -1.6699623833
 H         1.4712326740       -1.8134479805       -2.8970094863
 H        -0.3034717064        2.8954659758       -5.5333342480
 H        -1.1867570826        1.6856213748       -4.7740865858
 H        -3.3373164988        1.2201721841       -3.4112527116
 H        -3.1884310293        0.1690399364       -1.8676920430
 H        -0.7296262364        3.6746342802       -0.6084171448
 H        -2.4397153065        4.1860279114       -0.7946305170
 H        -1.2955016463        5.1925961052       -1.5666985459
 H        -3.3245981473        4.6049164342       -3.1754746620
 H        -1.7085733735        4.5552985088       -4.0020024714
 H        -2.9970014898        3.2545415741       -4.2568169726
 H        -5.3875882711        1.3012234678       -2.4136552054
 H        -4.6028632795        2.8199449166       -1.8756490837
 H        -6.5262938185       -0.7182751886        0.2227737179
 H        -7.6104565456       -0.2021283773        1.4915133784
 H        -4.6960061982        2.6269616353        2.1912849561
 H        -5.3529120573        1.0320019073        2.3438728318
 H        -6.4652450191        2.3615272762        2.5831695000
 H        -6.5876030242        4.2041141183        0.7654564888
 H        -4.9659800484        3.9648177911        0.0668986339
 H        -6.4778063035        3.5941994203       -0.9069791400
 H        -9.1488994938       -0.0083246386       -0.9792456600
 H        -8.2337594631       -1.4951677108       -1.0223982582
 H       -11.4505094959       -2.4740351392        3.1161601992
 H       -10.7013319830       -1.7151099962        4.6021173299
 H       -12.1482241203       -0.9761311526        3.8824522552
 H        -9.5590771744        1.5105656003        1.5000390281
 H       -11.2256368911        1.7914529362        1.1895196330
 H       -10.3392556470        1.3124900455       -0.0819069451
 H       -12.9460196954       -0.0482300051        1.5795187583
 H       -12.4522358985       -0.5370153006       -0.0104062848
 H       -12.4633395057       -1.7149178927        1.2584077635
 Na        1.0991492044        1.5056899177       -0.6821281764
