155

 C        -3.2568765937        4.6167772116        5.8819174060
 C        -3.4931886736        4.9038559915        4.4211159230
 C        -4.2524871417        6.1943405329        3.9852497850
 C        -3.1729973471        7.0143278596        3.0854488181
 C        -1.8728433686        7.4672597292        3.7911073590
 C        -5.3355957502        5.8798709271        2.9876493145
 C        -4.8047158329        7.0045534422        5.1366272657
 O        -3.0638636637        4.0953260106        3.6158415495
 O        -3.3053961799        6.9933217454        1.9002663998
 C        -0.6977894412        7.9773800409        2.7648800852
 C         0.6006331186        8.4899854975        3.3625354856
 C         1.9860604259        8.5221530934        2.6750228751
 C         2.3232452372        7.0561087696        2.2725324398
 C         3.7444675164        6.8556442466        1.5810487248
 O         0.5193280963        9.1811307655        4.4208091018
 O         1.4552088984        6.2724599910        2.1090043395
 C         1.7792427825        9.2778778334        1.2563153779
 C         2.9332697026        9.4056794107        3.5511910730
 C         3.7276494850        5.5609353786        0.7902296273
 C         3.4934766684        4.2759262268        1.4929651947
 C         3.2046239763        3.0947559820        0.5052612944
 C         1.8340823202        3.1943710524       -0.1932884302
 C         0.4641875117        2.8132814918        0.4992582204
 C         4.3022130402        3.1527840483       -0.6969972208
 C         3.4758434550        1.7456672241        1.2731582703
 O         3.4920921691        4.1932438212        2.6909722109
 O         1.7511683278        3.5151208163       -1.3485239087
 C        -0.7273024367        2.8143918321       -0.4933011388
 C        -1.6056708394        1.5374180763       -0.2804120479
 C        -3.1923207465        1.6382949737       -0.0324445191
 C        -3.7722380228        0.7398208517       -1.1201751851
 C        -3.9846133588        1.3093707357       -2.5163089431
 O        -0.9810168282        0.4660863187       -0.2182431124
 O        -3.9608252736       -0.4923801134       -0.8981375380
 C        -3.3040693459        0.9670685507        1.2838298251
 C        -3.7672985007        3.0695415150        0.0829064956
 C        -4.4498477016        0.3452348501       -3.6356661747
 C        -3.3108633706       -0.6487901686       -4.1159872836
 C        -3.2062329831       -0.9096986223       -5.6624108085
 C        -1.8436629115       -1.5036631764       -6.1682622474
 C        -1.5225868710       -2.9140239224       -5.7580548175
 C        -4.4742887018       -1.8517965494       -6.0227689676
 C        -3.3958012366        0.4251001315       -6.4242290962
 O        -2.5960646189       -1.2702130303       -3.3941971705
 O        -1.2344045332       -0.7890942685       -6.9167542216
 C        -0.1011324495       -3.2622010187       -6.2502344016
 C         0.8532674517       -3.8285277666       -5.1794360838
 C         1.5963969517       -2.8448368771       -4.1825305157
 C         0.7771462543       -3.0197510681       -2.8251348693
 C         0.7624772555       -4.4830193896       -2.1423344134
 O         1.0456255308       -5.0032878430       -5.1355760496
 O         0.3141084062       -2.0625217298       -2.2557693689
 C         3.0555689752       -3.2371299966       -4.0084224628
 C         1.4662388258       -1.4554816035       -4.6361840806
 C        -0.7293826577       -4.8572400061       -1.6442803283
 C        -0.9464295755       -4.4822531777       -0.1513361586
 C        -0.7078716905       -5.6336007939        0.9331169946
 C         0.7064157056       -6.3015998071        0.8635049882
 C         0.8969985330       -7.7437418498        1.3041174506
 C        -0.9869492573       -4.9914983016        2.2435409650
 C        -1.8095646912       -6.6828181963        0.6214952634
 O        -1.4479745170       -3.4164016580        0.1917317346
 O         1.6106261338       -5.5572124289        0.5413805500
 C         2.4028716933       -8.1737027164        1.2888537375
 C         2.6083799130       -9.4773875522        1.9939110629
 C         3.2152461904      -10.8159149038        1.3298074586
 C         1.8751726914      -11.4789260308        0.7551276455
 C         1.5429249359      -12.9227861761        1.1772292628
 O         2.1188714612       -9.5820690000        3.1083685826
 O         1.1042891940      -10.7607786583        0.1494843259
 C         4.2594299727      -10.4813953249        0.2720390048
 C         3.7363687411      -11.6750293348        2.4933864486
 H        -3.0671426400        3.5539369917        5.9929153853
 H        -2.3669891285        5.0066195566        6.2725106785
 H        -4.0625343917        4.8213458321        6.4846851302
 H        -2.0844359126        8.2803507850        4.5129147549
 H        -1.4782881523        6.6484715023        4.2819586338
 H        -6.2135926262        5.3533104487        3.3525138662
 H        -4.9606119830        5.1157570541        2.2895557296
 H        -5.6019462533        6.8181438393        2.4690275046
 H        -4.1891520947        6.8772021021        6.0487236062
 H        -4.8575018523        8.0471530320        4.8446862474
 H        -5.8790621561        6.7533633182        5.3827124892
 H        -0.6582232574        7.1397191370        2.0153328163
 H        -1.1051274275        8.8824251599        2.3401660640
 H         4.0255395126        7.7431239507        0.9549194650
 H         4.6218820444        6.7590731974        2.3085558701
 H         0.8291774037        9.0807462677        0.7243714390
 H         2.5463986584        9.0234861940        0.5470220432
 H         1.8204327166       10.3337041363        1.4373171579
 H         2.4379719511        9.9078669918        4.3166910458
 H         3.5598161669        8.7941278681        4.2148325766
 H         3.5173064903        9.9284238041        2.8737105007
 H         4.7255083348        5.4062263759        0.4219040053
 H         2.9967050706        5.5933839157        0.0330900892
 H         0.5963109509        1.8400119002        0.9501556115
 H         0.3666367888        3.4960864590        1.3190337194
 H         4.2720598867        2.2216769526       -1.1542253745
 H         5.2604529749        3.3171940870       -0.3075000978
 H         4.0038341402        3.8188068906       -1.4981560880
 H         2.8163831133        1.5191289962        2.1798514745
 H         3.2853140949        0.9451203556        0.5847149014
 H         4.5251667558        1.7009592169        1.7069487102
 H        -1.3900800123        3.6294929514       -0.3090943858
 H        -0.3486621839        2.6882616798       -1.4975911953
 H        -4.8265704398        2.0375430676       -2.3095652841
 H        -3.0921682586        1.9592887428       -2.8054734220
 H        -4.2722407231        1.2274494347        1.7494839588
 H        -2.6235151225        1.2042213508        2.1166238641
 H        -3.3114651602       -0.1378446179        1.1125297943
 H        -3.7538854987        3.6845989921       -0.8090398060
 H        -4.7922281275        2.8476269938        0.3844535317
 H        -3.3341086652        3.5861567752        0.9446390321
 H        -4.9519818921        0.9265593775       -4.3649293903
 H        -5.2048266940       -0.3491942703       -3.2454467293
 H        -1.6822179661       -3.1860060498       -4.7552034898
 H        -2.2458765561       -3.5593727515       -6.2343168220
 H        -4.1715741638       -2.6268157619       -6.8100633061
 H        -5.3670137572       -1.3895186987       -6.4423096811
 H        -4.7241340156       -2.4139543242       -5.1024341752
 H        -4.4591569296        0.7119344618       -6.3371066545
 H        -2.8103198671        1.1818842164       -5.9142849284
 H        -3.0587750921        0.5742364692       -7.4065580855
 H        -0.3085493370       -4.1524524155       -6.9262709560
 H         0.3821934593       -2.4500035256       -6.8689239700
 H         1.3251753411       -5.2262148288       -2.7243801644
 H         1.3080062181       -4.4537939462       -1.2027812235
 H         3.4992295838       -3.4866954750       -4.9485908454
 H         3.2358894688       -4.1326335726       -3.4661240860
 H         3.7609115543       -2.5178928883       -3.4927915761
 H         0.5020162431       -1.0554183869       -4.7885838629
 H         1.8288441552       -0.7809732648       -3.8440889693
 H         2.1191198043       -1.2461808357       -5.4552749613
 H        -0.9200891498       -5.9221535072       -1.7935180627
 H        -1.4522711720       -4.1535561494       -2.0792158832
 H         0.5448979596       -7.8855566414        2.3582271166
 H         0.4192336152       -8.5256052872        0.7347510926
 H        -1.2196636204       -5.7575881425        3.0353675614
 H        -1.9729200220       -4.4166860603        2.2839753014
 H        -0.2368545184       -4.3395332040        2.7017818988
 H        -1.5523367371       -7.4489208652       -0.0699260159
 H        -2.1659745296       -7.0842194319        1.5984187496
 H        -2.5842402623       -6.2505935483        0.0934400194
 H         2.7231664918       -8.2084744290        0.2129414963
 H         3.0231402678       -7.3741960979        1.8503010492
 H         0.9475973623      -12.9576508461        2.0778854384
 H         0.9252006603      -13.2744450351        0.3301319139
 H         2.4357150635      -13.5108685175        1.1917695826
 H         5.0246803148       -9.7330283908        0.6299420043
 H         3.8218416449       -9.9287589884       -0.5484829242
 H         4.7533872967      -11.3282085386       -0.2939569533
 H         4.2172110230      -12.5456590583        2.1567433196
 H         4.5672482829      -11.1645514382        2.9997674097
 H         3.2057799154      -11.8077022128        3.3861629167
 Na       -1.7592499676       -1.4211660457       -1.1154517050
