155

 C        -3.3734244035        4.6888833345        5.9689067693
 C        -3.4242228721        4.7925285528        4.4775157529
 C        -4.1188408389        6.0363690242        3.9115976332
 C        -3.1400262850        6.9397097616        3.0273352806
 C        -2.0379993964        7.6631086747        3.6751300260
 C        -5.2792506430        5.5750804526        3.0867100725
 C        -4.6575383019        7.0453277930        5.0043641147
 O        -3.0213054333        3.8835426196        3.7789369988
 O        -3.3107878952        7.1215699129        1.7986759749
 C        -0.7940733151        7.7010392239        2.7526810375
 C         0.3118272141        8.3540489632        3.5067954878
 C         1.6257956650        8.4690579122        2.6318343060
 C         2.2125797400        7.0508595352        2.2363443155
 C         3.7163150756        6.7700906766        1.9940882262
 O         0.0936606868        8.8421184897        4.5626750214
 O         1.5475501185        5.9838248321        2.3558773697
 C         1.5485454756        9.4439526461        1.4520468030
 C         2.7949221761        8.8335230591        3.6480886603
 C         3.9077420297        5.6472318686        0.9509486580
 C         3.3361347129        4.2864295684        1.3703476719
 C         3.2712469686        3.0325955519        0.3274013120
 C         1.8353489398        3.1248827269       -0.3205471083
 C         0.5539137686        2.8328236563        0.5254877515
 C         4.3941816881        3.1290533662       -0.7401056416
 C         3.3268663531        1.7254852802        1.1305473293
 O         3.2125754757        4.0122291711        2.5335842795
 O         1.6823832248        3.3040804545       -1.5427789732
 C        -0.7908029868        2.9713860103       -0.2528177966
 C        -1.5886482153        1.6922698946       -0.2565008815
 C        -3.1721667059        1.6142028260       -0.0306553054
 C        -3.7954685926        0.6831676453       -1.1878786865
 C        -4.1825675610        1.3267220152       -2.5706196984
 O        -0.9998636469        0.6745718792       -0.5210812715
 O        -3.9178910735       -0.4721521617       -0.9680447750
 C        -3.4196988724        0.9375829674        1.3459101169
 C        -3.7287997203        3.0848509527        0.0002480756
 C        -4.5615858617        0.1783211687       -3.5033023270
 C        -3.4023970172       -0.5182989705       -4.3012752424
 C        -3.2549899415       -0.7857273573       -5.9043278566
 C        -1.8434422431       -1.3446711739       -6.2636877496
 C        -1.3630982474       -2.7676758283       -5.6851586484
 C        -4.4479443832       -1.6596119457       -6.2892868546
 C        -3.6355870965        0.6140365601       -6.4926959115
 O        -2.5933547868       -1.1869343794       -3.6599777274
 O        -1.0275791751       -0.5879963831       -6.7520426139
 C         0.0029317667       -3.2834212568       -6.0969092242
 C         0.8675391422       -3.8222753689       -4.9488872601
 C         1.7164640379       -2.8791805104       -4.0484439989
 C         0.9683409909       -2.9780866498       -2.7342521115
 C         1.0293740477       -4.4080993678       -1.9640826219
 O         0.9908106955       -5.0292662443       -4.7279030194
 O         0.3045855090       -2.0342512809       -2.3469752996
 C         3.1013661290       -3.3960114822       -3.9686537927
 C         1.7794469140       -1.4196216171       -4.5572367685
 C        -0.4358862833       -4.7492893557       -1.6153522911
 C        -0.7998562290       -4.3700838878       -0.2133750261
 C        -0.8574874167       -5.6409841021        0.8004310994
 C         0.5661389203       -6.3191816083        0.8300671357
 C         0.7405589586       -7.7673678255        1.2472834099
 C        -1.1890126748       -5.1781191585        2.2719671480
 C        -2.0233667139       -6.5383395434        0.3301358146
 O        -1.0004652588       -3.2163287116        0.1084839888
 O         1.4861807606       -5.5144514460        0.7344131560
 C         2.2491622537       -8.2571579710        1.1585881646
 C         2.6293740508       -9.4363176919        2.1047265052
 C         3.3132080567      -10.6610672735        1.4152543685
 C         1.9773211271      -11.3846006744        0.8531973482
 C         1.4817193856      -12.6827609793        1.4140345220
 O         2.1789191771       -9.4976752795        3.2276983207
 O         1.4680661362      -10.8257818148       -0.0723916442
 C         4.1684877397      -10.4805500655        0.1445856702
 C         4.1807388773      -11.4740472608        2.3943497853
 H        -2.6979832524        3.8679556863        6.2473058616
 H        -2.9096579791        5.5729723671        6.4842801445
 H        -4.3751286636        4.3766787183        6.4432944178
 H        -2.2944610624        8.6739540900        3.8542355366
 H        -1.7456004787        7.1867755980        4.6758775237
 H        -5.8843463933        4.8175990996        3.6285411455
 H        -4.9525810901        5.0822776706        2.1875835509
 H        -5.9057785928        6.3874523029        2.8565232234
 H        -3.9178101786        7.8140444893        5.3328944458
 H        -5.5286900005        7.5940884365        4.6150354195
 H        -4.9769384877        6.5915654606        5.9093250861
 H        -0.5522830372        6.6985571864        2.5204219479
 H        -1.1824608165        8.2209181783        1.8553968183
 H         4.1530366792        7.6584665149        1.5415092398
 H         4.1332062425        6.5489631801        2.9436059292
 H         0.9379015877        9.1497682344        0.6338559758
 H         2.5993641636        9.5184661590        1.0314464637
 H         1.1747765317       10.4628186226        1.7828554243
 H         2.4394798710        9.5665029500        4.4027849923
 H         3.1399584898        8.0396523783        4.2761688341
 H         3.6598515402        9.1446849393        3.0302484328
 H         4.9984004589        5.4483842368        0.7914418064
 H         3.4256391215        6.0854176191        0.0297281447
 H         0.8647239307        1.8977127307        1.0071483808
 H         0.5624661234        3.5710762109        1.3473770923
 H         4.5400141650        2.1495216957       -1.2612749606
 H         5.3408005331        3.4483023500       -0.2547841920
 H         4.0699801412        3.7517850268       -1.5677434668
 H         3.0850431644        1.8889371043        2.1475432145
 H         2.5873912597        0.9934583740        0.7196348270
 H         4.2940643428        1.3275819145        1.2553214260
 H        -1.3833231161        3.7966248626        0.1852086347
 H        -0.4708443005        3.1610282131       -1.2583525933
 H        -5.0094033203        2.0484864602       -2.5688744705
 H        -3.3082595198        1.8906061785       -2.8491859644
 H        -4.4284648197        0.5582910420        1.5165094020
 H        -3.1924230363        1.6358922736        2.1408641418
 H        -2.7784706011        0.0812156544        1.4996581665
 H        -3.4872859737        3.5850547089       -0.9696955484
 H        -4.8335820418        3.0795923701        0.0759857293
 H        -3.3616784210        3.6123035522        0.8799690118
 H        -5.2881291454        0.6502154139       -4.2269563088
 H        -5.1641404070       -0.5430712612       -2.8999035409
 H        -1.3973435750       -2.7171642421       -4.5248795814
 H        -2.1552157680       -3.5648363827       -5.7986566911
 H        -4.2268776022       -2.4591144092       -6.9335150158
 H        -5.1500160421       -1.1084231277       -6.9043869731
 H        -5.0162629447       -1.9248339317       -5.3804896605
 H        -4.6315934142        0.9991561579       -6.2821209139
 H        -2.9121726456        1.4167346695       -6.2015296850
 H        -3.5119592319        0.6330827654       -7.6213660261
 H        -0.1261001513       -3.9785129204       -6.8641011992
 H         0.5927714402       -2.4509537104       -6.4829888460
 H         1.4432990327       -5.3118660739       -2.5040195604
 H         1.7711955260       -4.2298922888       -1.1564980425
 H         3.6223216291       -3.2411865324       -4.9030946406
 H         3.3216055419       -4.4437391560       -3.7941818262
 H         3.6307730250       -2.8618294882       -3.2485898341
 H         0.8646389292       -0.8867123789       -4.5886309147
 H         2.3973886487       -0.7527184207       -3.9546546384
 H         2.2491025469       -1.4612323088       -5.5189118241
 H        -0.5003110979       -5.8330645629       -1.7748751558
 H        -1.0816048665       -4.1815538656       -2.3171244235
 H         0.5874175344       -7.9508488313        2.2824226581
 H         0.1060846341       -8.5287445900        0.7456938747
 H        -1.7987698369       -5.7723145529        2.9271136454
 H        -1.6861065191       -4.2510566250        2.2954023502
 H        -0.2658338179       -4.9809496545        2.8106747545
 H        -1.7264809975       -7.2865205379       -0.4092923710
 H        -2.4378541799       -7.0147393678        1.1845079362
 H        -2.7730433745       -5.9147551017       -0.2624909165
 H         2.5189458270       -8.5477101522        0.1851975631
 H         2.7937265993       -7.4428602016        1.4573719503
 H         0.9955533412      -12.4033854990        2.3230528779
 H         0.7636580598      -13.0118534865        0.7047837716
 H         2.2477532227      -13.4069425156        1.6046226400
 H         4.9594394273       -9.8484837527        0.4163475476
 H         3.8063341883       -9.9991460331       -0.7720071841
 H         4.5229541898      -11.4128966087       -0.1948507602
 H         4.4597422656      -12.4842284741        2.2154963133
 H         5.1368322048      -11.0122127292        2.5846659416
 H         3.7388200357      -11.4222238305        3.3765455515
 Na       -1.6338223694       -1.4678441595       -1.2729727214
