155

 C        -2.8534395050        5.2074286919        5.8349356776
 C        -3.2774746440        4.7012234328        4.4835784806
 C        -4.4751831041        5.5387761601        3.8160398092
 C        -4.0268708765        6.4423117769        2.6767004417
 C        -2.8409251754        7.5338185337        2.8039263920
 C        -5.4913361868        4.4871788189        3.2492088144
 C        -5.3793100399        6.3048349693        4.8530292079
 O        -2.9161297762        3.6752776761        3.8845767895
 O        -4.5412317028        6.2696666917        1.5656755085
 C        -1.3774648934        6.8989595825        2.6917914345
 C        -0.5424238757        7.2102002315        3.8634896653
 C         1.0705267875        7.4757665035        3.4890963435
 C         1.7010796980        6.3130960384        2.4884462737
 C         3.1487457828        5.6959611513        2.5521525099
 O        -0.9413349957        7.1626371215        4.9603624035
 O         1.0072818532        6.0581302985        1.4864787080
 C         1.1367941949        8.6561678635        2.4834342223
 C         1.8586726328        7.4999898880        4.7702473079
 C         3.5091305273        4.9577065276        1.1318842499
 C         3.3867853171        3.4820179477        1.2075706312
 C         3.0776821921        2.7169594829       -0.1264558674
 C         1.5257361074        3.0373809379       -0.3138468037
 C         0.6042510021        3.0344287163        0.9170363806
 C         3.8957006323        3.2759612721       -1.3070014068
 C         3.1504349366        1.1614443608       -0.1213161558
 O         3.6080122326        2.8767976208        2.2444009687
 O         1.0739224611        3.3881383592       -1.4115798739
 C        -0.9215200343        3.1227571501        0.7545001513
 C        -1.5604125897        1.9210357841        0.0224056718
 C        -3.1745285168        1.9791910846       -0.1518140636
 C        -3.5013972457        0.7560946977       -1.0825946157
 C        -4.0415087953        1.0319368136       -2.4605137178
 O        -0.9170203385        1.0032779180       -0.2976859886
 O        -3.3207919985       -0.3884823602       -0.5875953943
 C        -3.7942783892        1.6988858570        1.2343948520
 C        -3.7170201086        3.3178684567       -0.6556135340
 C        -4.1104238163       -0.2460235831       -3.3059906219
 C        -2.9315371999       -0.4501433861       -4.1398554303
 C        -2.8965724499       -0.4074740462       -5.7523067865
 C        -1.3818856069       -0.9402276014       -6.1059418411
 C        -0.9481326673       -2.3237444654       -5.6620030798
 C        -3.9406425916       -1.2080977683       -6.4903518020
 C        -2.8060151582        1.1691236417       -6.1855033864
 O        -1.8252108415       -0.6114072117       -3.5792046571
 O        -0.7402754903       -0.2058995652       -6.8087899528
 C         0.5475705923       -2.5098570607       -5.9357949377
 C         1.1950778213       -3.4694485066       -4.9626801736
 C         2.3262565196       -2.9480970529       -3.9139268083
 C         1.4826149482       -2.2510625288       -2.7395384938
 C         1.1363002566       -3.0373722552       -1.4613382891
 O         0.8389941206       -4.6619362372       -4.9565743031
 O         0.9865342667       -1.1986950413       -3.1005332988
 C         3.1332711792       -4.1936662359       -3.5206638437
 C         3.4320036672       -1.8970788567       -4.2945648069
 C         0.0268800233       -4.1330019731       -1.7108903527
 C        -0.8086440488       -4.0813473279       -0.3727794630
 C        -0.8556509860       -5.3216577507        0.4521530948
 C         0.6233367275       -5.8035037479        0.8707546667
 C         0.7042842551       -7.0151342579        1.7305315924
 C        -1.7805727560       -5.0919353591        1.7129966009
 C        -1.5088155207       -6.5330691611       -0.3539144215
 O        -1.2972271901       -3.0028092453       -0.0074701789
 O         1.5898616146       -5.1256734881        0.6018180891
 C         1.4773435253       -8.2070444844        1.0194427615
 C         2.4170301915       -8.8992303615        1.9432381508
 C         3.2452967962      -10.0090762842        1.2282092987
 C         2.4300312726      -11.3747648256        0.9010585241
 C         1.3393010224      -11.8002827619        1.9009970790
 O         2.4911380366       -8.6558718937        3.1323201473
 O         2.7645953515      -12.0868800152        0.0043092761
 C         3.9055628651       -9.5557775389       -0.0497156780
 C         4.3526793691      -10.5185591983        2.2099167671
 H        -2.1506840934        4.5368088016        6.2970162129
 H        -2.4883987398        6.2687965282        5.7994100324
 H        -3.7621975303        5.3764916086        6.4663922224
 H        -2.9018016709        8.2369099957        1.8992224875
 H        -2.9249605686        8.1645224248        3.7110693729
 H        -6.0949874718        4.1275914925        4.0337194084
 H        -4.9856266972        3.6521588139        2.7980489684
 H        -6.0597767540        5.0249283379        2.4716544429
 H        -4.9625491138        6.9002330673        5.6057583023
 H        -6.0363856307        6.9567314982        4.2569484650
 H        -6.1595307650        5.6866810813        5.3067148602
 H        -1.4791571276        5.8586496702        2.4592360155
 H        -1.0132070847        7.1966014657        1.7513288950
 H         3.7554215204        6.5896972183        2.7707125830
 H         3.1060077870        4.9663431052        3.3191892321
 H         0.6040613024        8.3663625522        1.5636136559
 H         2.1878940733        8.8517930329        2.1765628993
 H         0.6380172263        9.5902145011        2.8492579990
 H         1.7841542087        8.3875193202        5.3841420438
 H         1.4396063419        6.7750891821        5.3877690194
 H         2.9650930865        7.3429492353        4.6560349899
 H         4.5498523293        5.1611716904        0.7595383044
 H         2.9528037954        5.5087201859        0.3221033569
 H         0.9954525505        2.1524327908        1.5367859774
 H         0.9860894820        3.9460804024        1.4417361318
 H         3.4056845491        3.0291865466       -2.2754960125
 H         4.9629672709        3.0442823031       -1.3379286519
 H         3.8448155240        4.3417302838       -1.2932424183
 H         2.7272752357        0.7680880885        0.7725883573
 H         2.5971170861        0.5837949351       -0.8676375666
 H         4.1436090599        0.7685951111       -0.3074360448
 H        -1.4477821405        3.0148046001        1.7069810533
 H        -1.3183104892        4.0872505826        0.3114330244
 H        -4.9986575653        1.4218527045       -2.3578076581
 H        -3.5295744150        1.7988043198       -3.0694785321
 H        -4.8627785734        1.3976507994        1.1984060486
 H        -3.8182699053        2.5725315409        1.8625271155
 H        -3.2542611916        1.0049021022        1.8630705537
 H        -3.2950433699        3.5040911876       -1.6394733355
 H        -4.7936931961        3.3817276937       -0.6554576817
 H        -3.2646200309        4.1639601776       -0.0738210576
 H        -5.0763262440       -0.1842740933       -3.8701348469
 H        -4.1379471376       -1.1000082002       -2.5915200706
 H        -1.1208514433       -2.5740506046       -4.5724809657
 H        -1.5950025329       -2.9828567149       -6.3315219536
 H        -3.5322163452       -1.5750096422       -7.4005795447
 H        -4.7416251463       -0.4443699164       -6.6828846798
 H        -4.2417194424       -2.1212176022       -6.0318009599
 H        -3.8572381712        1.5412840714       -6.1279946743
 H        -2.2369845878        1.7107615081       -5.4254032959
 H        -2.5319526767        1.4746597908       -7.1962986175
 H         0.7389866403       -2.9030430514       -6.9355674875
 H         1.1343034129       -1.6353214148       -5.8999047336
 H         1.7855709075       -3.7307643657       -1.0177877024
 H         0.8746929705       -2.2093316870       -0.7526285570
 H         3.9334384767       -4.2537038601       -4.2521292162
 H         2.4974735910       -5.0863829070       -3.6175480395
 H         3.4457843177       -4.1798904881       -2.5328009457
 H         3.0705806259       -0.9308527501       -3.9770948102
 H         4.2921178273       -2.1686252961       -3.7758508226
 H         3.5400232191       -1.8709044160       -5.3578150835
 H         0.5821262447       -5.0860008759       -1.8570681100
 H        -0.5738134876       -4.1008690385       -2.6352871300
 H         1.4008557627       -6.8006337814        2.5782613618
 H        -0.2030795947       -7.3362140635        2.1403932827
 H        -1.6520480567       -5.8332775093        2.4958865040
 H        -2.8179382817       -4.9667943275        1.4071577381
 H        -1.4899734094       -4.0806009811        2.0992863486
 H        -1.2391669217       -7.3895001869        0.2804515688
 H        -2.5313354857       -6.4266722772       -0.3892329827
 H        -0.9807929700       -6.6683159695       -1.3166421993
 H         0.8596562201       -8.9150916177        0.5607767535
 H         2.0284713973       -7.8484076463        0.2047118108
 H         0.4183487902      -11.7897920194        1.3928766861
 H         1.5320522301      -12.8005248940        2.1231822036
 H         1.3113649282      -11.2433118511        2.7975878748
 H         4.9352948975       -9.2054832946        0.1464482341
 H         3.3432691925       -8.9320030220       -0.7783060057
 H         4.1097118183      -10.5091477262       -0.5302968461
 H         5.1752450122      -11.0284158649        1.7075071930
 H         4.7169900018       -9.7807475547        2.9039901431
 H         3.8571656674      -11.2322131584        2.8438343021
 Na       -1.2459211419       -1.0422984161       -1.4825516924
