155

 C         2.4243944006       -7.7653425221       -1.9753656199
 C         2.8368083405       -8.3592051944       -0.6900026624
 C         3.2989165136       -7.3834034664        0.4575189908
 C         1.9322800854       -6.7893597571        1.0562801186
 C         1.5693572119       -6.7041584965        2.5608970200
 C         4.1732580875       -8.0712285152        1.5396462860
 C         4.0665007980       -6.2998162028       -0.1854121948
 O         2.7525560590       -9.5333767494       -0.3658457296
 O         1.1980118947       -6.4133405439        0.1890069725
 C         0.8916321067       -5.4050928263        3.0572043007
 C         1.9243785338       -4.2267203515        3.0227437453
 C         1.2677129184       -2.8282372624        3.2630454721
 C         2.3596960422       -1.7297668420        3.5459810850
 C         3.4611945427       -1.3427561944        2.5799303575
 O         3.1328945353       -4.3931074268        2.9138130773
 O         2.1152529739       -0.9986878274        4.4820066828
 C         0.5141606134       -2.5330438815        1.9462650254
 C         0.3462267607       -2.8167088416        4.5199765167
 C         3.7949427980        0.2030818988        2.6999627676
 C         2.8616084377        1.1281018525        2.0381036736
 C         2.6117807681        2.4788684706        2.5961248406
 C         2.5840840140        3.5122742589        1.3950172679
 C         3.6279542076        4.6754914551        1.2912721943
 C         1.1461621654        2.3628677583        3.2776959615
 C         3.5508360365        2.9705095756        3.7623694925
 O         2.1492371863        0.6742139962        1.1248176983
 O         1.6666778902        3.4187133999        0.5429482751
 C         3.9883198423        4.9788870372       -0.1719464736
 C         5.1868713838        4.1876690325       -0.7134436425
 C         5.7308127557        4.3719390021       -2.1412410130
 C         5.3710089983        3.0202718329       -2.9457357441
 C         5.9906458556        1.7096703408       -2.5118227535
 O         5.7140143543        3.3211557709       -0.0815540802
 O         4.5231975930        3.1129128337       -3.8425895510
 C         5.0748536276        5.5591038971       -2.8701493242
 C         7.2678160646        4.6717771343       -2.0664494253
 C         5.0625569930        0.6448506045       -3.2234333026
 C         3.5863366432        0.7016273048       -2.7841859813
 C         2.5869103326       -0.2142345171       -3.7959607771
 C         1.2664432946        0.5382266962       -3.8421120249
 C         1.0990629719        1.5483711630       -4.9590346327
 C         3.1936965105       -0.4647271892       -5.1589997464
 C         2.4537360383       -1.5958297968       -3.0651367531
 O         3.1531085472        1.3760046168       -1.9179847720
 O         0.4491006750        0.3967973983       -2.9366157582
 C        -0.1486471500        2.4218449219       -4.6455830836
 C        -0.1338355239        2.9846704816       -3.2815779342
 C        -1.5971383592        3.3771577344       -2.6231998125
 C        -2.0065735331        1.9457734579       -1.9649087925
 C        -3.1312073916        1.1310667781       -2.5817613133
 O         0.9015929764        3.1123950253       -2.6528850165
 O        -1.3507780821        1.4131932938       -1.0900041520
 C        -1.3598569724        4.4211913020       -1.4325392536
 C        -2.6461970738        4.0246732475       -3.6260602355
 C        -4.4331914700        1.6125409698       -1.8159047032
 C        -4.6107059893        1.3829034733       -0.3011468817
 C        -5.8194284612        2.0119773618        0.3873714112
 C        -7.0425689431        1.2805684011       -0.0513598872
 C        -7.4956174210       -0.1235007959        0.5855302451
 C        -5.5830170014        1.7805990815        1.9254145850
 C        -6.0999889222        3.5453944712        0.1730656621
 O        -3.9002427859        0.6530983380        0.3410636836
 O        -7.7780637442        1.8414011448       -0.8490992082
 C        -8.5863358818       -0.6979652631       -0.3383336126
 C        -9.7429957369       -1.1637269511        0.5273005544
 C       -10.7042610304       -0.3141886797        1.3933607837
 C       -10.1597121925       -0.5940268217        2.8832841302
 C       -11.1965159825       -1.3879535435        3.7644187886
 O        -9.9272791165       -2.3626415494        0.6760344317
 O        -9.0920950469       -0.2152247089        3.3370808655
 C       -10.8201605029        1.2241770147        1.2127207906
 C       -12.1142646844       -0.9005374132        1.1031336675
 H         2.0234491480       -8.4131632793       -2.6208594064
 H         1.7731933264       -6.9876367341       -1.5844277874
 H         3.2801349035       -7.2266571864       -2.5153434111
 H         0.9445574640       -7.5472791718        2.8091565564
 H         2.5473122258       -6.8636735219        3.1327161463
 H         4.8202365602       -8.7686925046        1.0953782877
 H         3.5292756056       -8.6574426728        2.2141846423
 H         4.7199002638       -7.3534806196        2.1425081582
 H         3.4838963422       -5.6224599798       -0.7270365867
 H         4.5618948787       -5.5555999203        0.4280197891
 H         4.8469629042       -6.7746474554       -0.8115079486
 H        -0.0787956941       -5.2035340259        2.5531263908
 H         0.5958201966       -5.5777703576        4.1231112272
 H         4.3404297439       -1.9995384502        2.7014781881
 H         3.1348970385       -1.5222595030        1.5478074702
 H         0.9046719064       -1.8799990932        1.1566122295
 H        -0.4305439700       -1.9116952858        2.1142246625
 H         0.3941642931       -3.4974046116        1.5676438252
 H        -0.4361479905       -3.5687108556        4.4180521979
 H         0.9147137312       -2.9999404115        5.4551123584
 H        -0.1750382489       -1.8422468181        4.5151663788
 H         4.7845970523        0.2775257918        2.1400226088
 H         3.8599496153        0.3223310766        3.7930470540
 H         3.1655989034        5.5538898070        1.7376322023
 H         4.5235152242        4.4144417479        1.8075790504
 H         0.8700119090        3.2167459607        3.9068613424
 H         1.1555048637        1.4320412978        3.9179330538
 H         0.4506873803        2.2346764725        2.4050263850
 H         3.1115817021        2.5075182324        4.5678260548
 H         4.5383155042        2.6142844021        3.5392422515
 H         3.6253293848        4.0400562408        3.7831861906
 H         3.1683696238        4.7581516552       -0.8624344365
 H         4.2557747300        6.0692300874       -0.1558937138
 H         6.9603503065        1.6099213636       -2.9490992970
 H         6.1149884207        1.3928042344       -1.5056053881
 H         5.4024477743        6.4890953292       -2.3694419548
 H         3.9504386206        5.6682367734       -2.7474004175
 H         5.2993764835        5.7546971899       -3.8955562599
 H         7.6916189230        4.6407152477       -3.0521724314
 H         7.5407648384        5.5891401789       -1.6203423257
 H         7.7491506365        3.9979171404       -1.4154300786
 H         5.4054441886       -0.3769977490       -3.0554879475
 H         5.3122582490        0.6285492126       -4.3199120441
 H         1.9440955124        2.2194327954       -4.9983380375
 H         1.0513701945        1.0651393847       -5.9528368335
 H         3.9383798289       -1.1715861320       -5.2123520060
 H         3.5220053635        0.3904926446       -5.6169463090
 H         2.3407824385       -0.8587476846       -5.6978711138
 H         3.4165914556       -2.1013226887       -2.9373434795
 H         1.9824429127       -1.4667589142       -2.0973060708
 H         1.8651841423       -2.2199198891       -3.7328736705
 H        -0.2575150062        3.1740676145       -5.4746099086
 H        -1.0718154278        1.7779701034       -4.7942179390
 H        -3.3108207308        1.3234531343       -3.6309587918
 H        -2.8769786774        0.1357774883       -2.2701212878
 H        -0.4515250386        4.1242707308       -0.9502101776
 H        -2.0787555570        4.5365352320       -0.6449919285
 H        -1.1432087839        5.3292204214       -1.9437438965
 H        -3.3477408687        4.4954722141       -2.9913241231
 H        -2.0126756776        4.7404803462       -4.2382724488
 H        -3.1476263027        3.2281742702       -4.1675802722
 H        -5.3449993434        1.2226112920       -2.2160826978
 H        -4.4567292383        2.7130868019       -1.9388254457
 H        -6.5806749126       -0.7012280790        0.6817431076
 H        -7.8160176737        0.0860092024        1.5597499319
 H        -4.5869787289        1.9524336469        2.3029173326
 H        -5.6705286018        0.6868180199        2.1475511180
 H        -6.3425894402        2.3172655569        2.5128979813
 H        -7.0490421140        3.6801517899        0.7006979474
 H        -5.4743814837        4.2221946433        0.6272268862
 H        -6.3200813188        3.7196596521       -0.8693601771
 H        -8.9441493261        0.1099829833       -1.0155525655
 H        -8.0744244271       -1.5764373692       -0.8387128922
 H       -11.2880500885       -2.4176218448        3.4686094276
 H       -10.8286424257       -1.2705331407        4.8289579345
 H       -12.1483453831       -0.8213432331        3.7299430065
 H        -9.8490451751        1.6345513104        1.0018326539
 H       -11.2278635210        1.8180772353        2.0521364159
 H       -11.5412329153        1.4662745027        0.4259111276
 H       -12.8863548535       -0.6068221815        1.7898363874
 H       -12.4068046932       -0.7340011043        0.0509489527
 H       -11.9686964122       -1.9654819426        1.2450279463
 Na        1.0304747978        1.4677932588       -0.7003157467
