155

 C         2.1382141306       -7.8281838604       -2.0371321262
 C         2.9044592973       -8.3384715205       -0.6763293635
 C         3.2719184920       -7.3426393654        0.4267429357
 C         1.8864951357       -6.8217315773        1.0535496462
 C         1.5849611991       -6.8901661695        2.5374253669
 C         4.1312238764       -8.0129559679        1.4336357834
 C         4.0105369682       -6.1507706687       -0.0302604662
 O         2.8601849284       -9.5231896147       -0.3920933765
 O         1.0231239659       -6.2684286346        0.3784691984
 C         0.9834474909       -5.5272793324        2.9552033998
 C         1.9311582320       -4.2949227786        3.1431374333
 C         1.1567003665       -2.8603589001        3.2494467188
 C         2.1952212336       -1.7073961151        3.5827912905
 C         3.3972103483       -1.4491711205        2.5568637017
 O         3.1335379458       -4.3894278560        3.3312129304
 O         2.1245178502       -0.9418448443        4.5099597218
 C         0.3729214886       -2.4104909012        1.9586499305
 C         0.1578508834       -3.0111202682        4.4357243804
 C         3.8733217263        0.0651622727        2.4727668805
 C         2.8159492703        1.0317298407        2.0467131144
 C         2.5226160307        2.4785204316        2.6536196216
 C         2.5377376362        3.3869340972        1.3816623196
 C         3.7718701921        4.3375630478        1.2449041405
 C         1.1679700807        2.7473527864        3.2990812529
 C         3.6429387017        2.8360028662        3.7209247109
 O         2.1305919934        0.6756585978        1.1105443501
 O         1.6000616858        3.4360999807        0.6490980769
 C         3.9998996077        4.8031426645       -0.2060633476
 C         5.2218225881        4.0423268763       -0.7581144182
 C         5.7674126336        4.3901683524       -2.1996232167
 C         5.1645725066        3.2758362455       -3.1010528680
 C         5.8109890847        1.9022258387       -2.8715045815
 O         5.7714375164        3.1719770113       -0.1027595152
 O         4.2515687700        3.4634215712       -3.8817993982
 C         5.2085980576        5.8023937033       -2.6782748360
 C         7.3504194179        4.4320720190       -2.2591672401
 C         5.1558813144        0.5737019821       -3.2695656505
 C         3.6318846049        0.5003900629       -3.0961290567
 C         2.5790540819       -0.3008381196       -3.9866532476
 C         1.2870914246        0.5255559565       -4.0497406630
 C         1.1838378718        1.7831175936       -5.0228466245
 C         3.1057717708       -0.5189600805       -5.4056735288
 C         2.3690244820       -1.6430758302       -3.2261662595
 O         3.1116895756        0.9160615139       -2.0339947933
 O         0.3814894911        0.2677900346       -3.2799506919
 C        -0.0111127474        2.6674244522       -4.7264071730
 C        -0.0598964694        3.0634911629       -3.2682894454
 C        -1.5020522302        3.3309757358       -2.5597343536
 C        -1.9805946577        2.0095890614       -1.7473316242
 C        -3.2068069181        1.2306257767       -2.2516910367
 O         0.9929877698        3.1462873635       -2.6813947813
 O        -1.3445567888        1.5327581827       -0.8158336954
 C        -1.1620093548        4.4532550309       -1.5610767318
 C        -2.6629956090        3.8740333325       -3.7183769128
 C        -4.6299258801        1.6038056303       -1.8122336266
 C        -4.6187557133        1.4238116170       -0.3207707028
 C        -5.7415178111        2.0471824551        0.5776708221
 C        -7.1478682967        1.4573873322       -0.0359933089
 C        -7.5925893182        0.1037092757        0.6012943133
 C        -5.5710632311        1.7322308259        2.0970365271
 C        -5.6196812768        3.5864298014        0.3814483339
 O        -3.7622761733        0.6351553102        0.0909699220
 O        -7.7596691178        1.9694752444       -0.9538002317
 C        -8.7295817276       -0.5806592279       -0.1479604551
 C        -9.7258574296       -1.3450888321        0.7406667664
 C       -10.7687692841       -0.4169198041        1.5736232283
 C       -10.2181165516       -0.6044419449        3.0509708715
 C       -10.9733352349       -1.2416467362        4.1773324692
 O        -9.6728335243       -2.5348417541        0.8925820285
 O        -9.0964802711       -0.1776823934        3.3028372700
 C       -10.6589937129        1.0758381228        1.1618799030
 C       -12.2223058741       -0.9961905626        1.3736711230
 H         1.8155660738       -8.8156332052       -2.5541109501
 H         1.3531347901       -7.1282822195       -1.8125300472
 H         2.7672076390       -7.4310609396       -2.7706497325
 H         0.9600990160       -7.7880574123        2.8174150225
 H         2.3771101097       -7.0390115679        3.1839848061
 H         5.1860485489       -7.7090198520        1.2293890748
 H         4.2083961791       -9.0928676652        1.3596398102
 H         3.9081071199       -7.6565069576        2.4498328217
 H         3.3515549531       -5.3890450088       -0.5779304272
 H         4.3668297361       -5.5114813683        0.7895693346
 H         4.9117892195       -6.3585483827       -0.5676674190
 H         0.0679414782       -5.2333984453        2.4753122826
 H         0.6380337983       -5.7332909613        3.9524456184
 H         4.2817547639       -1.9829847651        2.9306694249
 H         3.2704408193       -1.8302626922        1.5300897319
 H         0.5131791681       -1.3765080147        1.7154723433
 H        -0.6408438252       -2.3556161870        2.1294344206
 H         0.7491973747       -2.9841440324        1.0634932003
 H        -0.6139670520       -3.6927918561        4.0578281470
 H         0.6947679650       -3.4567254540        5.2736690212
 H        -0.4190928081       -2.1433007616        4.7566080358
 H         4.6011117231       -0.0222512624        1.7364262069
 H         4.3416651940        0.1769476636        3.4281762342
 H         3.3892867646        5.1947465284        1.7992998557
 H         4.7653358279        3.9773591396        1.5862626652
 H         1.0285845446        3.8505723434        3.2978153016
 H         1.2585656117        2.4347381122        4.3481661271
 H         0.3932299100        2.2652860786        2.7952632773
 H         3.7188465155        1.8927526616        4.3167591964
 H         4.5813678948        3.1831958825        3.2568846088
 H         3.1520536698        3.5956032179        4.3565122752
 H         3.2250379748        4.3484646788       -0.8479444340
 H         4.0930051515        5.8552309896       -0.1903779046
 H         6.8918699834        1.8023545915       -3.1425801283
 H         5.8268747325        1.7465109234       -1.7499824454
 H         5.2304471277        6.7228240129       -2.0630184634
 H         4.1878700221        5.7989085907       -3.0234122388
 H         5.8459256740        6.0898387630       -3.5665899159
 H         7.7380777392        4.9088834935       -3.1444660517
 H         7.7905524415        4.9534107750       -1.3835983699
 H         7.8369445816        3.4458476542       -2.1160590598
 H         5.6092419618       -0.3297054861       -2.8491678321
 H         5.4704991576        0.4242158271       -4.2802037106
 H         2.1463135805        2.3654080471       -4.9866075179
 H         1.1223094444        1.4650105619       -6.0640804872
 H         4.0973532676       -1.0278081061       -5.3888432916
 H         3.2532013944        0.5390854289       -5.8716103800
 H         2.4334769189       -1.1915210999       -5.9425850212
 H         3.1435428957       -1.8813654423       -2.4823003534
 H         1.3851212915       -1.5488167504       -2.7208666000
 H         2.3409508868       -2.4274938291       -3.9611430653
 H        -0.1630361415        3.5087756030       -5.3758418015
 H        -0.8159972226        2.0277573988       -5.0244579877
 H        -3.3153797039        1.3396595090       -3.3663291826
 H        -2.9612169458        0.1681905789       -1.9460896805
 H        -0.6268985660        4.0557238971       -0.6492104398
 H        -2.1123869493        4.7390987084       -1.0746996705
 H        -0.5610618418        5.2461844818       -2.0375918139
 H        -3.7279320080        3.6739584509       -3.3731938142
 H        -2.4841654334        4.9021091038       -3.7370213161
 H        -2.2996646543        3.5117185736       -4.6833788261
 H        -5.4163736099        0.9073167888       -2.2829390755
 H        -4.8322481986        2.6594432898       -2.1155302240
 H        -6.6237153622       -0.4044121510        0.7123809240
 H        -7.9024314774        0.4319916353        1.6791878595
 H        -4.9268617933        2.3798960158        2.7176017130
 H        -5.0987358066        0.8004312344        2.3224805873
 H        -6.5522468276        1.8475255708        2.5282126965
 H        -6.4700515224        4.1234010034        0.7252558406
 H        -4.7757381403        3.9962583320        1.0311213243
 H        -5.4473955222        3.7402875121       -0.6767692878
 H        -9.2716810866        0.2211081567       -0.6849053578
 H        -8.2632124849       -1.3006990824       -0.7929596414
 H       -11.0516721172       -2.2751635547        3.8547128406
 H       -10.4850708672       -1.1619532853        5.0842441124
 H       -11.9173123447       -0.7524834844        4.2780142549
 H        -9.6407169947        1.3703285373        0.8510360154
 H       -10.8296850076        1.7047703939        2.0432310147
 H       -11.4316322788        1.4463655879        0.4619676591
 H       -12.9573200824       -0.4240866355        2.0164495123
 H       -12.4769559647       -0.8416854240        0.3277086299
 H       -12.3465936206       -2.0545745535        1.6431325239
 Na        0.9825899125        1.6946717763       -0.9431171554
