155

 C        -3.5338228406        2.4052023397        4.4057177308
 C        -4.9085225749        2.8228254909        3.8278544368
 C        -5.3125715200        4.2674057408        3.9216374451
 C        -3.9706817493        5.1089390595        3.5678356856
 C        -3.5944843738        6.5277113912        4.0072569465
 C        -6.2148715804        4.5634902245        2.6683208860
 C        -5.8456374604        4.5847349067        5.3555830682
 O        -5.8004855748        1.9691747174        3.4786781464
 O        -3.3863064853        4.8020050704        2.5601856844
 C        -2.1449823801        6.8999120065        3.7921944834
 C        -1.3000844697        6.1530073762        4.7818031066
 C         0.2872453724        6.1040746836        4.6421893128
 C         0.6116769332        5.9984150657        3.1407662814
 C         1.9159639715        6.3106938963        2.5562083026
 O        -1.8481204961        5.4615606331        5.6011194045
 O        -0.1918697337        5.3884128321        2.4730312903
 C         0.7841776033        7.4151734229        5.3169310808
 C         0.8156015887        4.8528770477        5.2585214453
 C         2.2469901534        5.7178527134        1.1745547212
 C         2.6673350482        4.2684360695        1.2493165316
 C         2.4559565337        3.3583955108        0.0726758705
 C         0.8624834375        3.2115125674       -0.0727217389
 C         0.0672091789        2.7100180551        1.1558106808
 C         2.9139074274        3.9893319794       -1.2490541421
 C         3.1675901097        2.0087508780        0.4471527767
 O         3.0498395782        3.8156708589        2.3337467705
 O         0.3404668588        3.5308277744       -1.1096462896
 C        -1.4105457644        2.3639880912        0.9807412006
 C        -1.8157832290        1.3144419326        0.0190524541
 C        -3.2781616266        1.0434398811       -0.4190892273
 C        -3.2591561501        0.5695937655       -1.9832544548
 C        -3.1520539039        1.8364678067       -2.9542462237
 O        -0.9488261060        0.7019466846       -0.5931497940
 O        -3.3743684563       -0.6029356263       -2.3457859831
 C        -3.8922441276       -0.1907102634        0.4473202642
 C        -4.1834947042        2.3213274519       -0.2516780522
 C        -3.3256847652        1.4532865928       -4.4866547173
 C        -2.1360997210        0.6782651826       -5.0401134947
 C        -2.0118159540        0.5906921078       -6.5683300973
 C        -0.4822980712        0.3605508713       -6.8947808329
 C         0.2564493917       -0.8899507715       -6.5236195592
 C        -2.7215994002       -0.6907888407       -7.1304581910
 C        -2.4822501098        1.8339664672       -7.3910281501
 O        -1.4816857040       -0.1147827289       -4.3951541273
 O         0.0567136793        1.3198728300       -7.3938306650
 C         1.6003488793       -0.4800603204       -5.8333078180
 C         2.3918559169       -1.7458595245       -5.3533017117
 C         3.1066709972       -1.7603153108       -3.8840450496
 C         1.9772647260       -1.8798484914       -2.8431536826
 C         1.7190837416       -2.9414799573       -1.8328111468
 O         2.7887041407       -2.5718070181       -6.2095883959
 O         1.2123802238       -0.9678754020       -2.8501355257
 C         4.1489868543       -3.0280229706       -3.7837942034
 C         3.9187701283       -0.5748510005       -3.5127236919
 C         0.7930331765       -4.1059562014       -2.2725167733
 C        -0.3227735116       -4.2801106854       -1.2268332813
 C        -0.4296621584       -5.6747054308       -0.5149261008
 C         0.9106412466       -5.9435988114        0.2302558238
 C         0.9251408471       -6.8797061937        1.3482522337
 C        -1.6210995182       -5.6523034611        0.4775808112
 C        -0.7118096960       -6.8503122540       -1.4941490471
 O        -1.0159044971       -3.3500847116       -0.8875728926
 O         1.9136735534       -5.4457158682       -0.1836957673
 C         2.2039250409       -7.7146626382        1.3594946960
 C         2.3680824451       -8.3627614758        2.7206686758
 C         3.4234454519       -9.6526678405        2.8068135729
 C         2.8607881604      -10.8556664097        1.9855808379
 C         3.4455552666      -12.2728720824        2.2551519971
 O         1.7242950490       -8.0914878107        3.6840071302
 O         2.0566426058      -10.6854699494        1.0702316871
 C         4.8438115140       -9.1790364930        2.2065034093
 C         3.7076408301       -9.9740111225        4.3381616458
 H        -3.0824919963        1.5471141540        3.8625407532
 H        -2.7947844044        3.1851839531        4.4493412435
 H        -3.7023174668        2.1587779409        5.4612587952
 H        -4.1256419692        7.2464522374        3.4341461720
 H        -3.9638829980        6.5823905295        5.0533304231
 H        -7.2082681382        4.1862156085        2.9084233216
 H        -5.6114849750        4.0744409676        1.8960866304
 H        -6.3301435358        5.5990866851        2.4512167603
 H        -4.9679809778        4.7880469701        6.0413481853
 H        -6.4576819974        5.4749519417        5.2684018955
 H        -6.4155937446        3.8278981539        5.7785995535
 H        -1.9072102003        6.7132307911        2.6951674552
 H        -1.9900497744        7.9977058750        3.8492510672
 H         1.9492790533        7.4438170984        2.4964334845
 H         2.7710887336        6.0500005586        3.2421652187
 H         0.3566195566        8.3259794280        4.9133400052
 H         1.8844199255        7.5481033975        5.2558586419
 H         0.6229463777        7.3034931886        6.3894214814
 H        -0.0398241063        4.4915037976        5.8581253321
 H         0.9911428316        4.1789890323        4.4060961501
 H         1.6349046037        4.9424433093        5.8757312329
 H         3.0672977602        6.1624100099        0.6458574526
 H         1.4362328527        5.8365141502        0.4069083974
 H         0.5815703073        1.8835401636        1.6598847710
 H         0.1423317951        3.4259244893        1.8943107453
 H         3.1571271496        3.2175990642       -1.9270883382
 H         3.7855281614        4.5069516322       -1.0292736861
 H         2.1521419519        4.6138027402       -1.6968495702
 H         2.5057660169        1.4261010478        1.0837711334
 H         3.3913618601        1.5264124861       -0.5759490861
 H         4.0992435786        2.1661119332        0.9853081488
 H        -1.8831044953        2.0720451854        1.8966857769
 H        -1.9380789556        3.2759104914        0.7100488621
 H        -4.0007778505        2.4657797465       -2.6866490779
 H        -2.3193118913        2.4737263255       -2.5440888875
 H        -4.3178645279       -0.9882564154       -0.1785412967
 H        -4.7265280618        0.1916051824        1.0307267535
 H        -3.0758322163       -0.6999254793        0.9117458954
 H        -3.7873352146        3.2676590448       -0.5822936096
 H        -5.1064407727        2.3004016016       -0.7521638532
 H        -4.3902994561        2.3841562801        0.8014520052
 H        -3.5746719777        2.3275932260       -5.0368790387
 H        -4.1800440682        0.7707450478       -4.5111979878
 H        -0.2745887433       -1.4234134522       -5.7215354275
 H         0.3210495881       -1.5177946004       -7.3743838019
 H        -2.4901025480       -0.6656181036       -8.1715405290
 H        -3.8370334285       -0.6479149977       -7.0568138217
 H        -2.5050762887       -1.6609154559       -6.5923004836
 H        -2.4451718367        2.7561730165       -6.8748354599
 H        -1.7553901382        1.9376137696       -8.1769714465
 H        -3.4843946091        1.5979916956       -7.8303755221
 H         2.2834495095       -0.0663333944       -6.4792534885
 H         1.4394470592        0.2160939255       -5.0230168564
 H         2.5950754536       -3.2540045596       -1.2785195969
 H         1.1734951464       -2.4490087253       -1.0205594683
 H         4.8044266962       -3.0179198204       -4.6357347402
 H         3.6750796341       -3.9918795969       -3.6654571818
 H         4.7743546014       -2.7746849648       -2.9403705451
 H         3.5140573415        0.3096574754       -3.8651733549
 H         3.9606628208       -0.4324826797       -2.4355459523
 H         4.9431205351       -0.5233762288       -3.7898223723
 H         1.4335724110       -4.9296437860       -2.4632605163
 H         0.2641683576       -3.7818714226       -3.1743407184
 H         1.0420023546       -6.1833857269        2.1308080201
 H        -0.0230273627       -7.3479560960        1.4115480731
 H        -1.6847574762       -6.7232097367        0.8625009074
 H        -2.5901423534       -5.4198693761       -0.0537431381
 H        -1.4710210257       -5.0239107326        1.3588775925
 H        -0.1642932336       -7.6725209940       -1.1738588546
 H        -1.6953702489       -7.1784180516       -1.8452672237
 H        -0.1176393581       -6.7412855250       -2.3792586092
 H         2.1621260972       -8.5732210503        0.6333858081
 H         3.0244465322       -7.0139674280        0.9974383585
 H         2.7226828512      -13.0468048560        2.1926399936
 H         4.2036563516      -12.3931502052        1.4833023529
 H         4.0457088818      -12.3255212189        3.1237006406
 H         5.1878113218       -8.3010250559        2.8139228842
 H         4.8199008158       -8.7928542893        1.1194435414
 H         5.6287079345       -9.9665908104        2.2507602153
 H         3.5660325758      -11.0972418031        4.5126517031
 H         4.7923012899       -9.6957418840        4.5164577293
 H         2.9953494052       -9.5084936554        5.1016802949
 Na       -1.0498284871       -1.0488522365       -2.1016446208
