155

 C        -4.5692671135        1.4374974550        4.8701530400
 C        -5.4456520741        2.1637023327        3.8833692709
 C        -5.8093236056        3.6734404161        4.0354907202
 C        -4.3635827981        4.4457070723        4.0675931983
 C        -4.0902119340        5.4084188146        5.2547467133
 C        -6.8547288088        4.3042817339        2.9290669285
 C        -6.6676172451        3.7114302064        5.3110566677
 O        -5.6272913562        1.5182385656        2.8275755962
 O        -3.6960948370        4.2474684317        3.1107218563
 C        -2.9346349108        6.3776787309        5.0598936775
 C        -1.5679348585        5.7418409859        5.3135374735
 C        -0.1849804490        6.5441701583        5.0625439426
 C         0.2373690646        5.9508844731        3.6185730886
 C         1.7431194322        5.7038654959        3.2014513615
 O        -1.6084392875        4.5830367647        5.6580393625
 O        -0.6374019323        5.8634282835        2.7849074834
 C        -0.4306924068        8.0760054678        5.0064246506
 C         0.8628139667        6.1164583928        6.2533200801
 C         1.9282680446        5.4347522126        1.6770211333
 C         2.4806772289        4.0459675817        1.3950995574
 C         2.2449805222        3.3953073143       -0.1238131864
 C         0.7343901608        3.0659758130       -0.2523160913
 C         0.0432922138        2.3782720322        0.9529308736
 C         2.6491785181        4.5488343485       -1.0764718882
 C         2.9844028664        2.0487106510       -0.3994183415
 O         3.1441095631        3.3913502391        2.1694730757
 O         0.1363493530        3.4866671381       -1.2064416584
 C        -1.5043919393        2.2946736396        0.6933101621
 C        -1.8226589682        1.1168133742       -0.2382222454
 C        -3.3663412921        1.0432571050       -0.6715427263
 C        -3.2616701332        0.7386145801       -2.1627165857
 C        -2.7315842302        1.8923995904       -2.9726474481
 O        -0.9279210893        0.3413249510       -0.6115946090
 O        -3.3456313324       -0.3412653068       -2.6878794466
 C        -3.8835866667       -0.1815067773        0.2068656104
 C        -4.1236011662        2.3295396825       -0.3279181720
 C        -2.7668497226        1.6898018169       -4.5497179901
 C        -1.9504499630        0.5315151605       -5.0427190272
 C        -1.6839083061        0.5274332509       -6.5718471240
 C        -0.0849537642        0.8920336185       -6.5163012433
 C         0.8338952140       -0.3562860719       -6.3794528695
 C        -1.9818273550       -0.8188823898       -7.2129050072
 C        -2.3781574172        1.6446662230       -7.4116646905
 O        -1.3955772222       -0.4080194517       -4.5475371062
 O         0.4446354303        1.9660136640       -6.4930790686
 C         2.3274781000       -0.0297570610       -5.9549028520
 C         3.0339157071       -1.3676156045       -5.7074957476
 C         3.4462074984       -1.6821887891       -4.1967670498
 C         2.2121521940       -1.8102821484       -3.3562046069
 C         2.1532234239       -2.8960206228       -2.2840770487
 O         3.3263114461       -2.2692164240       -6.4751351845
 O         1.2748856959       -1.0159853257       -3.5116080220
 C         4.4211730421       -2.7832513967       -4.1405550263
 C         4.1045862002       -0.4194745660       -3.6212527400
 C         1.3010572011       -4.1067224906       -2.7212874046
 C         0.1351325585       -4.3792450626       -1.7284450478
 C         0.0542528573       -5.6698777205       -0.9832319422
 C         1.3662587469       -5.9658184098       -0.1878578889
 C         1.2651083046       -6.8951494736        0.9404468069
 C        -1.1585557526       -5.6880641039       -0.0691179955
 C        -0.2096030134       -6.9398672747       -1.9862039126
 O        -0.7499474626       -3.5453020981       -1.5518980223
 O         2.2846727956       -5.2396697884       -0.4602667668
 C         2.5492304771       -7.1802142946        1.6424852725
 C         2.2218665067       -7.9257412570        2.9534092737
 C         3.0081225857       -9.2533266936        3.2295593281
 C         2.9044407841      -10.2468529292        2.0216368008
 C         3.8380000123      -11.3607138113        1.7545782246
 O         1.4683880748       -7.4738301935        3.7339782087
 O         1.9276455578      -10.0716573312        1.3050482320
 C         4.4758496141       -8.8635531706        3.4879583093
 C         2.2919595532       -9.9655459425        4.4672551100
 H        -4.6560631312        0.4083636466        4.5522156530
 H        -3.5707217132        1.7103725142        4.6969537014
 H        -4.8108788617        1.3476337293        5.8814930712
 H        -5.0486605948        5.9678773524        5.4567508988
 H        -3.9103991352        4.7149111935        6.0494053719
 H        -7.5042954144        3.5408193866        2.5522876608
 H        -6.4726336431        4.7357838035        1.9897895025
 H        -7.3173728002        5.0180273079        3.6278369085
 H        -6.3600795526        3.0010413015        6.0757299808
 H        -6.7200617905        4.6889956742        5.7550840469
 H        -7.6575503778        3.3734633757        5.0504601740
 H        -2.9947084454        6.8419124152        4.0540926486
 H        -3.1911302483        7.2239022193        5.7697340751
 H         2.3570640780        6.5648351567        3.5506823069
 H         2.1185806304        4.7640722156        3.7303423519
 H        -0.7370577963        8.4632714180        4.1041208876
 H         0.5411287934        8.5781436319        5.1213579085
 H        -1.1292431514        8.4994978720        5.7902921453
 H         1.7803045590        5.8208713530        5.7490397726
 H         1.2028485641        6.9282525708        6.8942099900
 H         0.5137566806        5.2889540594        6.7932165981
 H         2.6222868006        6.1460228319        1.1718448281
 H         0.9277878650        5.6220389328        1.3144593877
 H         0.4288113822        1.4477514367        1.2227404345
 H         0.2839862184        3.0366760781        1.7522286220
 H         3.0482524224        4.2787368213       -2.0652284543
 H         3.3890274500        5.1613737759       -0.5676541000
 H         1.8490016604        5.2495446666       -1.1701603042
 H         2.3156550695        1.3563617466       -0.9181846476
 H         3.8319383158        2.2973883690       -1.1097748728
 H         3.2337770069        1.7240977342        0.6345412946
 H        -1.9638741159        2.0184958522        1.5998743934
 H        -1.8343047212        3.2225011065        0.3056081008
 H        -3.1231954497        2.9553370537       -2.8416504013
 H        -1.6975211132        1.7790191854       -2.6714895632
 H        -4.6862357338       -0.6620131072       -0.3748707735
 H        -4.0806607042        0.1847093303        1.2129194042
 H        -3.0072982351       -0.7835900596        0.3728755872
 H        -3.5157742249        3.1732277675       -0.5838776482
 H        -5.0854142265        2.4521495296       -0.7760299794
 H        -4.2801740861        2.4107226932        0.7839066408
 H        -2.5071290898        2.5671243015       -5.0974765289
 H        -3.7787256172        1.5379619793       -4.8661653242
 H         0.2440248953       -0.9418901731       -5.7264163673
 H         0.8806361968       -0.8460986140       -7.3423922709
 H        -1.8256614428       -0.7381941952       -8.2675087205
 H        -3.0886774002       -1.0470951521       -7.0638530108
 H        -1.4346028630       -1.7159704676       -6.8834180340
 H        -2.0553277833        2.6238270763       -7.2398893119
 H        -2.3494659858        1.3808478816       -8.4290798676
 H        -3.4599597155        1.5343860612       -7.1647666494
 H         2.6996925309        0.6192555742       -6.6396367297
 H         2.3546215098        0.5116051014       -5.0229835048
 H         3.1525109667       -3.2269394645       -2.1267132311
 H         1.6498663124       -2.4286432348       -1.4198932747
 H         5.2989215962       -2.6202870627       -4.7928675064
 H         3.8869402990       -3.6957869331       -4.5228789874
 H         4.8195620947       -2.9404097769       -3.1647151418
 H         3.4255763585        0.4008115227       -3.4015526650
 H         4.5809203999       -0.6054328117       -2.6629265201
 H         4.9156017787        0.0313562159       -4.2303279810
 H         1.8888325304       -4.9876625297       -2.8966403685
 H         0.7957579142       -3.8663798700       -3.6408527047
 H         0.6205410017       -6.4601790101        1.7172457486
 H         0.6801971920       -7.8185295374        0.8215084441
 H        -1.2824005573       -6.7593778076        0.3296260973
 H        -2.1068148896       -5.5591719470       -0.6333052888
 H        -1.0892250170       -5.0686142578        0.8597898286
 H         0.1148953902       -7.8578695467       -1.5007027855
 H        -1.2176042762       -7.1626231666       -2.1926614236
 H         0.2271468912       -6.8467946106       -2.9847927890
 H         3.3156323194       -7.7927569337        1.1476700157
 H         3.0623684963       -6.2224018503        1.9107036870
 H         4.5475686644      -11.5675585357        2.5268839657
 H         3.1010712590      -12.1901516822        1.5790052828
 H         4.4432535117      -11.1914436609        0.8626466353
 H         4.6281669121       -7.9047995858        3.9458249450
 H         4.9525583651       -8.8240481118        2.4951022543
 H         5.0226086108       -9.4997174245        4.1298497900
 H         2.9199320796      -10.0137824462        5.4438283134
 H         1.4594332337       -9.4041698312        4.9602478166
 H         2.0484093268      -11.0565528258        4.3033984032
 Na       -0.7090299412       -1.2672853800       -2.2498175452
