155

 C        -5.8557338780        0.6132296773        4.9204242182
 C        -5.5401115587        1.6814969683        3.8485364301
 C        -5.9962858105        3.1602265559        4.1572243872
 C        -4.7353134566        4.0439184074        4.0275053294
 C        -3.9864846418        4.4088521145        5.3272934768
 C        -7.0678388862        3.6416818577        2.9730628383
 C        -6.6751519510        3.1693903372        5.6264284198
 O        -4.9616507188        1.5083746133        2.8001889289
 O        -4.0524548412        4.1563685374        3.0045497155
 C        -3.0817260164        5.6952786541        5.0920387951
 C        -1.6442353125        5.4445122216        5.5582656024
 C        -0.4500407328        6.5483371878        5.0889845585
 C         0.0668381661        6.1131328732        3.6572997650
 C         1.4526174984        5.5752153411        3.5891627495
 O        -1.2159855644        4.5228446322        6.1907661843
 O        -0.6465002621        6.1785955873        2.6743346296
 C        -1.0139396301        8.0217655184        5.1635715741
 C         0.6196923857        6.4425453066        6.2769704273
 C         1.8711028575        5.3489209847        2.0791536767
 C         2.3050326682        3.9915410302        1.5142861826
 C         2.0232354354        3.6371628383        0.0258354656
 C         0.5794456343        3.0268146286       -0.0284095527
 C         0.2340095336        2.0235173216        1.1177705943
 C         2.0820088545        4.8616089834       -0.8639847598
 C         2.9361575217        2.4833119605       -0.5634758216
 O         2.8593181651        3.1553938620        2.2094994309
 O        -0.1497819415        3.1313654462       -0.9801466250
 C        -1.2573115571        1.6854864568        0.9591454853
 C        -1.5228172190        0.8416694899       -0.1975323953
 C        -3.0085140496        0.7749339127       -0.5881024479
 C        -3.2376121085        0.6194101044       -2.2047321609
 C        -2.4060805024        1.6307890280       -3.0687324161
 O        -0.7479065815        0.0059994926       -0.5783103775
 O        -3.7545477539       -0.3312370984       -2.6900924260
 C        -3.7190360491       -0.4932601803        0.0271647163
 C        -3.9150509327        2.0215935901       -0.1714502037
 C        -2.4592695246        1.6055452207       -4.6041630045
 C        -1.9039179168        0.3639932900       -5.3837344995
 C        -1.4598748096        0.5303002004       -6.7741439085
 C         0.1367820318        0.8314392419       -6.6477728833
 C         1.1590744352       -0.2465865380       -6.8146842940
 C        -1.5685244154       -0.8212786312       -7.5429487270
 C        -2.2187002278        1.7450096608       -7.4586703678
 O        -1.5288187547       -0.6175815668       -4.7218886240
 O         0.5363746113        1.9370735139       -6.5144236025
 C         2.3611017160        0.0943972151       -5.9834084755
 C         3.1839338331       -1.1462228982       -5.5769762592
 C         3.8761884739       -1.2811955696       -4.1041409683
 C         2.6480087352       -1.6106653372       -3.2942201855
 C         2.3897075520       -2.9150324467       -2.4648789334
 O         3.3920993215       -1.9105163750       -6.5028021457
 O         1.8063465762       -0.7456775167       -3.0215170576
 C         5.0050415273       -2.3878205709       -4.2023111158
 C         4.5021299881        0.0495691105       -3.5758960691
 C         1.3570248418       -3.9605130243       -3.0582247913
 C         0.1819598485       -4.2640569399       -2.0612437036
 C        -0.0151554206       -5.5576163431       -1.2853252006
 C         1.1828192336       -5.5274423754       -0.2301170390
 C         0.9474562069       -6.3562429442        1.0555019142
 C        -1.3799447214       -5.4503774300       -0.5660579852
 C         0.1241627998       -6.7974055719       -2.3235475746
 O        -0.6696434324       -3.3307272925       -1.8987005340
 O         2.2297646654       -5.0318174634       -0.3988175935
 C         2.2917255751       -6.9038354810        1.6924933764
 C         2.0605444673       -7.5457117449        2.9904101733
 C         2.7359104309       -8.9912522539        3.2627568967
 C         2.8319541501       -9.8697657003        1.9550950732
 C         3.8777478657      -10.9941577885        2.0457791282
 O         1.4787425293       -6.9762803304        3.8813251682
 O         2.1389826227       -9.6225645697        0.9866074223
 C         4.0603175074       -8.6415970047        3.9933047449
 C         1.8668058818       -9.8556090638        4.2667251189
 H        -5.5642012643        0.9470103212        5.9245857978
 H        -6.8535542977        0.1438940078        4.8538517650
 H        -5.1410812877       -0.2117171536        4.7595174832
 H        -4.5085991858        4.4430409046        6.2724226892
 H        -3.3112246457        3.4693904450        5.3236902497
 H        -7.9482693754        2.9853469779        2.8702746537
 H        -6.4906969005        3.7593067597        2.0531060706
 H        -7.4876442664        4.6280679855        3.2772461981
 H        -7.3952055678        3.8756905040        5.7768492250
 H        -7.1703086457        2.2147501817        5.6859173545
 H        -5.9361484559        3.2011515891        6.4645302784
 H        -3.1175750858        5.8415108654        4.0020765845
 H        -3.4853577397        6.5797883590        5.5722337070
 H         2.1195750288        6.3335278158        4.0597409606
 H         1.8001004399        4.7388976377        4.1289168531
 H        -1.3964371865        8.4220021377        4.2101233913
 H        -0.2294585216        8.7434539470        5.4832435687
 H        -1.8007602476        8.2188841375        5.9222394687
 H         1.0554281470        7.3932030739        6.4681952652
 H         0.1787369916        6.1655024470        7.1969951467
 H         1.4136299360        5.6325935081        6.1350549774
 H         2.6975663395        6.0002667969        1.8188344710
 H         0.9833167319        5.6065804570        1.4699998589
 H         0.8389919107        1.1322743928        0.9767711230
 H         0.3428446003        2.4226981985        2.1823965101
 H         1.8345132868        4.6244191891       -1.8635005392
 H         3.1394621255        5.1124319350       -0.9598238525
 H         1.4915587091        5.6870774866       -0.6315578792
 H         3.5112089868        2.9945952109       -1.3891334408
 H         3.5699154473        2.1540022653        0.2447303138
 H         2.2895055904        1.6659085586       -1.0452569047
 H        -1.5149446196        1.1121782901        1.8865206256
 H        -1.9161338113        2.5702979731        0.9031751794
 H        -2.5303698381        2.6289796254       -2.7771461359
 H        -1.3218409310        1.4015274912       -2.8350635823
 H        -3.7954055783       -1.1979819720       -0.7777858212
 H        -4.6504522564       -0.1163169716        0.3991193929
 H        -2.9858427136       -0.9121811156        0.6998369698
 H        -3.6051488692        2.7867504585       -0.8160704504
 H        -4.9007860779        1.8737272509       -0.5747762958
 H        -3.9470479220        2.2601882018        0.8640737922
 H        -1.7587578398        2.4161010178       -4.8932248256
 H        -3.4518105426        1.9480406036       -4.8924134583
 H         0.8002480606       -1.2075704983       -6.4778641894
 H         1.4743112914       -0.3014471312       -7.8289673443
 H        -1.1473935249       -0.7942106292       -8.6039225571
 H        -2.5259820054       -1.2915860275       -7.6443336166
 H        -1.1006238161       -1.5149103804       -6.8768078827
 H        -1.9588218639        2.7464349134       -7.0489725938
 H        -1.9507766715        1.7177707286       -8.5158858454
 H        -3.2459981765        1.5871555405       -7.3691854033
 H         3.0822021142        0.8248761279       -6.5334999498
 H         2.0937013622        0.7331457802       -5.0501396707
 H         3.3272950011       -3.5085353495       -2.2785300743
 H         2.1614893290       -2.5039603962       -1.4902481243
 H         5.8448589846       -2.0924284540       -4.8059273714
 H         4.6276076641       -3.2639710780       -4.7064608158
 H         5.4091001778       -2.7255271701       -3.2534721675
 H         3.8988457575        0.8714606796       -3.9833065289
 H         4.5973209232        0.2197919234       -2.5339690406
 H         5.4794377959        0.1748710574       -4.0281469936
 H         1.9259629413       -4.8026598568       -3.4487779569
 H         0.8848404280       -3.6562836547       -3.9831765339
 H         0.4016758823       -5.7020592035        1.8603565401
 H         0.2074991200       -7.1973319839        0.9452612080
 H        -1.6890844399       -6.4613096230       -0.2902072187
 H        -2.1872244986       -4.9065090370       -1.1007940234
 H        -1.2585402937       -5.0785018032        0.5022487192
 H        -0.0563389120       -7.7497169526       -1.7771999465
 H        -0.5328632375       -6.6672508467       -3.1546028855
 H         1.1485288680       -6.9831246852       -2.6066527706
 H         2.6632736041       -7.5267761843        0.8870161705
 H         2.9772160904       -6.0600322033        1.7634089851
 H         4.6149625481      -10.7059247664        2.7433950000
 H         3.4858201748      -11.9136994355        2.4177782975
 H         4.3153294006      -11.1185912214        1.0834999880
 H         4.0473921343       -7.7517076386        4.6603832966
 H         4.8274494305       -8.4166673937        3.2652148343
 H         4.4775490419       -9.5721712117        4.4211717721
 H         0.9052638645      -10.2716924657        3.7578716260
 H         2.3987885292      -10.7047146556        4.7579858932
 H         1.3663300075       -9.4081283486        5.1477440766
 Na       -0.4914214464       -1.0577463808       -2.6181114650
