155

 C         1.7653834334       -7.7268158215       -1.7244978141
 C         2.7055507987       -8.2195878995       -0.5803877204
 C         3.2104301087       -7.1290558649        0.3720105855
 C         1.9290591549       -6.6314382296        1.1173451194
 C         1.8186207875       -6.6786052269        2.6838363847
 C         4.2145398918       -7.7532949527        1.2600352149
 C         3.7623363272       -5.9381686013       -0.3599833526
 O         2.9659469064       -9.4247692822       -0.5165254779
 O         1.1077740935       -5.9744122394        0.4810289754
 C         0.8549586617       -5.7259917591        3.3885663005
 C         1.5083679483       -4.3219116396        3.5190794656
 C         0.6989143926       -3.0722133290        3.3509296169
 C         1.7003092112       -1.7917639045        3.5112345932
 C         2.8774771083       -1.7656991117        2.4359519848
 O         2.6921867233       -4.2747259599        3.6313758981
 O         1.6125508976       -0.9560239407        4.4106707806
 C        -0.0861428256       -2.9495579370        2.0077775113
 C        -0.2330928205       -3.0541944856        4.4932921817
 C         3.5306586208       -0.3583760737        2.5522427428
 C         2.7072315921        0.7309079808        1.9035487675
 C         2.5872845717        2.2560763205        2.4877266083
 C         2.7828532999        3.2576154618        1.3096544229
 C         4.0334747228        4.0907820766        1.2788556309
 C         1.1408513446        2.3902173467        2.9728680228
 C         3.6020177209        2.5654966354        3.6678580725
 O         2.1546112531        0.5218449287        0.8830366918
 O         1.8715593489        3.3533101855        0.5161075563
 C         4.3341013041        4.8005050637       -0.1278748982
 C         5.4254438958        3.9802118444       -0.9125782912
 C         5.8125685428        4.3401286411       -2.3770682359
 C         4.9906182161        3.3197078374       -3.3270901482
 C         5.5756582745        1.9558088725       -3.3820928320
 O         6.0936094666        3.0905385788       -0.3727667312
 O         3.9422141504        3.5574462299       -3.8627191364
 C         5.3648499206        5.8191679889       -2.6541436631
 C         7.4039009189        4.2368999464       -2.4783609013
 C         4.7112309654        0.9189524616       -4.2995206597
 C         3.4195764684        0.4831350227       -3.6136468903
 C         2.2455584084       -0.2838368714       -4.4832842332
 C         1.0201716947        0.7619995730       -4.4158742303
 C         1.2418862383        2.0336969187       -5.2304311922
 C         2.5506644718       -0.7508018334       -5.9614405026
 C         1.9785410488       -1.5735800428       -3.6159156060
 O         3.1292138588        0.7433545874       -2.4717130749
 O        -0.0729856233        0.5601331874       -3.8369217785
 C         0.1239031105        3.1387601843       -4.8831733751
 C         0.0538025337        3.2506170450       -3.3429246130
 C        -1.3075285354        3.3582617033       -2.7232518014
 C        -1.5753924757        1.9898123888       -2.0083427740
 C        -3.0004268488        1.2820137379       -2.0517470307
 O         0.9933221843        3.2054167560       -2.5580308653
 O        -0.7174632409        1.4619390479       -1.3583028658
 C        -1.2598025472        4.5600259559       -1.6649380930
 C        -2.4195837276        3.7766701922       -3.7413929821
 C        -4.3070904911        1.9533726664       -1.4112407670
 C        -4.3839708341        1.4102409145       -0.0254017032
 C        -5.5058291401        2.0623674558        0.8895897230
 C        -6.7691022552        1.4595239012        0.3437294382
 C        -7.5335806966        0.2592877284        1.0276514555
 C        -5.1558109910        1.7281984301        2.3570751672
 C        -5.4956647208        3.6335133398        0.8277307048
 O        -3.8370723397        0.3832664030        0.3407277799
 O        -7.0796311879        1.7944783867       -0.7814320491
 C        -8.8451006617       -0.0700848805        0.2585129024
 C        -9.6465323466       -1.1571352159        1.1114020949
 C       -10.6759934933       -0.6480918800        2.1615350962
 C        -9.9302536724       -0.3512480583        3.4542539407
 C       -10.4263313999       -1.0627496661        4.7373668854
 O        -9.3670179340       -2.3328350326        1.0616590651
 O        -9.1192303554        0.5299119931        3.4978935790
 C       -11.2158215204        0.7759964917        1.7539007138
 C       -11.9218414705       -1.5605727772        2.3144759173
 H         1.2222970334       -8.7089809381       -2.1226322002
 H         1.0079739433       -7.0010611660       -1.3518920492
 H         2.2135378472       -7.3915973475       -2.6152180645
 H         2.0799469716       -7.6028905395        3.2954865838
 H         2.8638942907       -6.2524477603        3.0071813805
 H         5.1701814973       -7.9313355896        0.6847882927
 H         3.8233683342       -8.7713032619        1.5444295281
 H         4.4388671193       -7.0939118724        2.0874621198
 H         3.0245407889       -5.4768033531       -0.9568895958
 H         4.2815086234       -5.2795222029        0.3605902536
 H         4.5309663062       -6.1835434278       -1.1546438727
 H        -0.1788306888       -5.6148223715        2.9642913542
 H         0.5928329745       -6.0983998666        4.3563771660
 H         3.5448201920       -2.5723534935        2.7049381199
 H         2.5400444535       -1.9192501934        1.4293080606
 H        -0.0953134040       -1.9383931644        1.7158732480
 H        -0.9218504462       -3.5788714085        1.8548710389
 H         0.5731863194       -3.3489922511        1.2354194683
 H        -0.5475858768       -4.1061996429        4.7952497369
 H         0.1933554120       -2.5776810896        5.3504035513
 H        -1.1251927012       -2.5008145027        4.2850590090
 H         4.6418483059       -0.4031087432        2.1948150474
 H         3.7138674759       -0.3114871775        3.6159288033
 H         3.8880306018        4.9519004337        2.0060335450
 H         4.9495148135        3.4893992244        1.5053091336
 H         0.7318567101        3.3912820721        3.1359717195
 H         1.0087657677        1.7940705198        3.8113924411
 H         0.5096352882        1.8344521561        2.2355317997
 H         3.4382155577        1.7515261958        4.4382429257
 H         4.6549466508        2.3919939886        3.3570131131
 H         3.3204646044        3.5379035246        4.1018184621
 H         3.4290645590        4.8905580345       -0.7346133300
 H         4.7762074114        5.7812619414        0.2174429272
 H         6.6539518828        1.8048921853       -3.5573394084
 H         5.5241694898        1.5319495788       -2.3606072907
 H         5.8055602706        6.4676913709       -1.9294258317
 H         4.3072905374        6.0360247312       -2.5490439401
 H         5.7020929469        6.2721809530       -3.6164554028
 H         7.6859439953        4.6463011125       -3.5053454424
 H         7.8635197498        4.9336706066       -1.7883634970
 H         7.8881480347        3.2671506947       -2.5253656497
 H         5.4619415277        0.2267970767       -4.6417430110
 H         4.3086427170        1.5249125021       -5.1643393370
 H         2.2276094142        2.4585137996       -5.1673689085
 H         1.2273667961        1.8155293790       -6.3251120420
 H         3.3331126572       -1.6215600139       -5.9022207369
 H         2.7941730756        0.1216627774       -6.6403346640
 H         1.5856333738       -1.0829474498       -6.3091976810
 H         2.2673517037       -2.3939964466       -4.2212630318
 H         2.4551013972       -1.5835728338       -2.6668286816
 H         0.8491889619       -1.6098833730       -3.4329326810
 H         0.3446496639        4.0517273518       -5.4046366366
 H        -0.7960503914        2.7986354874       -5.2791048176
 H        -3.1394485113        0.8523385146       -3.0436491149
 H        -2.8597521969        0.3475424582       -1.5407476503
 H        -0.3381215667        4.3851874702       -1.1061647648
 H        -2.1232633900        4.7260888245       -1.0046780188
 H        -1.1304094391        5.5694908703       -2.2475282674
 H        -3.2020580777        4.0147753276       -3.0598098100
 H        -2.1860559726        4.6920394252       -4.2917366155
 H        -2.4886390064        2.9316558174       -4.5250542423
 H        -5.2455425061        1.9149055630       -1.8967904598
 H        -4.1079739887        3.0218720604       -1.2590364195
 H        -6.7696044577       -0.5685003829        0.8641192581
 H        -7.6476978077        0.4541338931        2.1421863675
 H        -4.2850517369        2.2358903784        2.7531181596
 H        -5.1225544355        0.6394839940        2.4601225544
 H        -5.9220169130        1.9890863910        3.1230808253
 H        -6.5037982489        3.9462081191        1.2259125341
 H        -4.6413134971        3.9480544818        1.3793940956
 H        -5.4428424222        4.0648939256       -0.1841371878
 H        -9.4479345243        0.8213794639        0.1228075681
 H        -8.7958537381       -0.4405774061       -0.7508544689
 H       -10.1042545287       -2.1243965555        4.6925397299
 H       -10.0160047279       -0.5929470676        5.5917124780
 H       -11.4769197596       -0.9860404696        4.7796635085
 H       -10.4568328366        1.4331380444        1.3130663829
 H       -11.5505151750        1.2797645606        2.6464674543
 H       -11.9740915079        0.7039411927        0.9925391736
 H       -12.6671974070       -1.1175396226        2.9261773652
 H       -12.4071735055       -1.7571720502        1.3265554836
 H       -11.6207937963       -2.5344815301        2.8054260812
 Na        1.5393639678        1.3635385647       -1.0349184945
