155

 C        -3.3047730173       -2.3749132417        4.3473026468
 C        -3.8145789467       -1.4132447108        3.3305163095
 C        -5.3306847118       -0.9278417750        3.3512564661
 C        -5.2373252070        0.6626516880        3.1333226718
 C        -4.8745066869        1.4377537554        4.5047698659
 C        -5.9074315573       -1.7946444808        2.1591463770
 C        -6.1459545462       -1.2878744930        4.5552779032
 O        -3.0047471953       -0.7460703777        2.6452618573
 O        -5.3628970970        1.1512587059        2.0528323949
 C        -4.1447289874        2.7765827755        4.2010137099
 C        -3.2536400530        3.2538184441        5.4368160031
 C        -3.1984852035        4.7217102035        5.8744411666
 C        -2.5826836057        5.3786398637        4.5234095664
 C        -1.0497660961        5.3421629669        4.6113014740
 O        -2.4065404735        2.4648716127        5.7787290885
 O        -3.0794407812        5.6609159986        3.4431475319
 C        -4.6072834392        5.3163765237        5.9925873142
 C        -2.3329309389        4.8769598681        7.1598852286
 C        -0.4610101762        5.3759995241        3.2707842326
 C         0.9550079174        4.7273133818        3.0340565895
 C         1.2085513511        4.4781105292        1.4759902025
 C         0.1605638801        3.3812160742        0.8875417786
 C        -0.1117564015        2.0825369740        1.7116453551
 C         1.2305212171        5.7126345032        0.5329664163
 C         2.6693390025        3.8260542209        1.6076724015
 O         1.7437565083        4.5656468379        3.9397408474
 O        -0.6192313767        3.6854426623        0.0302194214
 C        -1.4575710822        1.4515620381        1.2100175416
 C        -1.4455054971        1.0318611343       -0.2364870962
 C        -2.6932618678        1.2414500451       -1.1900373113
 C        -2.4334370939        0.9479625583       -2.6973210226
 C        -2.1749057016        2.1889525319       -3.6246298117
 O        -0.4587392902        0.4065287149       -0.7108317292
 O        -2.3759049556       -0.2014609885       -3.1391373000
 C        -3.7358891175        0.1912426662       -0.6395598915
 C        -3.3711371307        2.6243989524       -1.0205017219
 C        -1.9860702861        1.7039387777       -5.0855224203
 C        -0.8073661826        0.6984518231       -5.4521859217
 C        -0.4612315609        0.5372012333       -7.0207848323
 C         0.8480965768        1.4639059144       -7.1329023265
 C         2.2371020226        0.8968138438       -6.8906509948
 C        -0.2274396099       -1.0483831574       -7.2565303742
 C        -1.5514897471        0.9998728935       -7.9998219945
 O        -0.1353723497       -0.0342512395       -4.7026206513
 O         0.6228030244        2.6058724372       -7.3671806921
 C         3.0860049694        1.5498717467       -5.7988218118
 C         4.1917126106        0.5411679627       -5.3108046314
 C         4.7573102166        0.7523772829       -3.7906135335
 C         3.7301416753        0.1537387948       -2.8560100142
 C         4.0898189202       -1.1505430390       -1.9423323401
 O         4.4619171698       -0.4040731628       -5.9875803899
 O         2.5472539825        0.5882864632       -2.8623789956
 C         6.0925770080       -0.0480267847       -3.8221964220
 C         4.8589827240        2.2305543123       -3.5907438207
 C         3.5637716210       -2.5130199349       -2.5153979645
 C         2.0953891526       -2.8087481454       -2.3973644546
 C         1.5566878055       -4.3314194313       -2.4447316675
 C         1.9749115232       -4.9847417742       -1.0362593429
 C         1.0387794177       -5.8442433309       -0.1274441391
 C         0.0170752177       -4.3938390302       -2.5036198634
 C         2.2302496816       -5.2372839035       -3.5681163595
 O         1.2886954952       -2.0224344381       -1.8588492957
 O         3.1766958344       -4.9966361827       -0.8098981197
 C         1.8209453135       -6.4944020228        1.0366552674
 C         0.7547255355       -6.9596169541        2.0389825473
 C         1.1040659781       -7.8277031971        3.4125387746
 C         2.1100563764       -8.9785110854        2.9903276161
 C         2.2308265658      -10.2517238358        3.8890187186
 O        -0.4340817847       -6.6798809648        1.8838804490
 O         2.6864744255       -8.8099616062        1.9606208398
 C         1.7647832776       -6.9215146872        4.4959126907
 C        -0.2577237674       -8.4150819641        3.9701478805
 H        -2.6946875380       -1.8654690715        5.1360467833
 H        -4.0564063612       -2.9000015566        4.9444638929
 H        -2.5738288673       -3.1287863538        3.9533688637
 H        -5.7361233087        1.6631071681        5.1042109713
 H        -4.2286520946        0.7515213356        5.0402163265
 H        -6.2330400913       -2.7682820412        2.5313020135
 H        -5.1141845763       -1.8938097137        1.4013436532
 H        -6.7304619428       -1.1628117539        1.6967369992
 H        -7.1930052680       -0.8821549450        4.5921238620
 H        -6.2854110087       -2.3485223404        4.6672081781
 H        -5.6211961296       -1.1230023683        5.4779901226
 H        -3.3985612835        2.5971288102        3.4356011933
 H        -4.8066375601        3.5380958688        3.7691212922
 H        -0.7961807089        6.0992474826        5.3891157650
 H        -0.6342215884        4.4161065131        5.0820219405
 H        -5.3005495307        4.4462254404        6.1732949356
 H        -5.0550915225        5.8138508298        5.1777565605
 H        -4.7218143839        5.9877386547        6.8809709843
 H        -1.2812519458        4.4563116867        7.1308941009
 H        -2.0935000509        5.9040378184        7.4054005091
 H        -2.8413468237        4.4133572611        8.0003885593
 H        -0.2572006312        6.4236129141        2.9720477148
 H        -1.0795544070        4.8857015393        2.5141307126
 H         0.6976408351        1.3134825025        1.7352400538
 H        -0.2228164130        2.4963722901        2.7968103416
 H         1.3004101841        5.2819869654       -0.4627198207
 H         2.0535486843        6.3553236467        0.7265993188
 H         0.3053184764        6.2484885352        0.6626953217
 H         2.6756577123        2.8714424973        2.0299440877
 H         3.2176995934        3.8112792832        0.6485724875
 H         3.3151562516        4.4266445935        2.3119359171
 H        -1.7564441486        0.5125178205        1.8163988223
 H        -2.2433730219        2.2448658950        1.3251265362
 H        -2.9287461151        2.9629040803       -3.6263484779
 H        -1.2214619920        2.5143219371       -3.3543405705
 H        -3.4595462353       -0.7504686172       -1.0924354279
 H        -4.7366621801        0.2948931124       -0.9871369590
 H        -3.7034173295        0.0647974145        0.4009881165
 H        -2.5941634519        3.4554761402       -1.1473011105
 H        -4.1518976998        2.7257770822       -1.7696380453
 H        -3.7794128389        2.9361816722       -0.0647642889
 H        -1.8723463381        2.6166526358       -5.7193234082
 H        -2.8394208548        1.2212605677       -5.5378731492
 H         2.1814839589       -0.1330514492       -6.6917262504
 H         2.7585637809        0.8811811993       -7.8652170671
 H         0.6605714259       -1.4216683273       -7.6976615106
 H        -1.1296252103       -1.2850298065       -7.8407355979
 H        -0.2567180614       -1.5318382560       -6.2872716088
 H        -1.8410810021        2.0222463284       -7.9136540752
 H        -1.3017854910        0.8151069180       -9.0346808434
 H        -2.5013095256        0.3503178925       -7.9074370597
 H         3.6011792582        2.4316344041       -6.2108651648
 H         2.5660540943        1.8005307167       -4.8915869940
 H         5.1835009717       -1.2959558064       -1.8463062666
 H         3.7358471764       -0.9844708910       -0.9371649756
 H         6.6822198015        0.4270307541       -4.5824944079
 H         6.0004168051       -1.0522510371       -4.1345975456
 H         6.5906397789       -0.0202967305       -2.8983308606
 H         3.9573463089        2.6053434950       -3.1188508958
 H         5.7297259664        2.3659742612       -2.9712907324
 H         5.0646206522        2.8973079345       -4.4380412114
 H         4.0457974053       -3.3110197998       -1.9920717597
 H         3.9173524561       -2.5966415476       -3.5178057027
 H         0.3303246255       -5.1071991178        0.2076146796
 H         0.4850034490       -6.4589030166       -0.8379920161
 H        -0.3170735470       -5.4324433609       -2.4869777352
 H        -0.4905791979       -3.8637280964       -3.2919819020
 H        -0.4005066494       -3.9025479893       -1.6309030228
 H         1.7599873609       -6.2569206595       -3.4810810924
 H         2.0122888212       -4.7574714154       -4.5277681133
 H         3.3294922780       -5.4060989474       -3.3998066825
 H         2.5836717062       -7.2211062188        0.7213214885
 H         2.4852952209       -5.7974776810        1.6174983662
 H         1.8380196527      -11.0515599390        3.2715454443
 H         3.2588284859      -10.5224153277        4.0400055493
 H         1.7771692804      -10.0868173218        4.8628138658
 H         1.2041875903       -6.0078448941        4.6759010962
 H         2.8176936150       -6.4744717434        4.3900670808
 H         1.9710207619       -7.4775235332        5.3922631688
 H        -0.8926789911       -7.5666568363        4.2737157788
 H        -0.8799344730       -8.9939878508        3.3146287633
 H        -0.1148339631       -9.0757409348        4.8568721012
 Na        0.4312872323       -0.1081025170       -2.6393182571
