155

 C        -3.2298784363       -3.2219657496        3.9782214663
 C        -3.4576884836       -1.7831990789        3.5149964282
 C        -5.0459725527       -1.4314103840        3.3252789159
 C        -5.0884085375        0.1075303368        3.2964778704
 C        -5.1746079002        0.8659900916        4.7404869692
 C        -5.4266111245       -2.0046092919        1.8672283035
 C        -5.7833008096       -2.0874174332        4.5192114174
 O        -2.7031546916       -1.0515618983        2.9784176382
 O        -4.9649441483        0.7683342721        2.2403214077
 C        -5.2122886783        2.4277468172        4.7204740629
 C        -4.1547570220        2.8908123154        5.7673627246
 C        -3.8032252905        4.5139539677        5.8192932857
 C        -2.8255827286        4.9266867606        4.5294046992
 C        -1.2739307734        4.8784053026        4.6939545145
 O        -3.5231909765        2.1200245514        6.4066898107
 O        -3.2583680562        5.1682458179        3.4556350239
 C        -5.0500890661        5.4107092757        5.7130494454
 C        -2.9971387883        4.9764555083        7.0545071797
 C        -0.6399944761        5.6312494040        3.4933434544
 C         0.6145466957        4.9004100836        3.1610551685
 C         1.1213732237        4.7617272851        1.6097361508
 C        -0.0023488354        3.9791496824        0.8119042384
 C        -0.5428345702        2.8323339657        1.6196349981
 C         1.1904020866        6.1204362328        0.9069447266
 C         2.4266822276        3.9870086631        1.3995898386
 O         1.2738790143        4.3576319112        4.0080347554
 O        -0.3188074683        4.2969306425       -0.3185905391
 C        -1.5274773904        1.8094856762        1.0545746108
 C        -1.3652451218        1.4393714910       -0.3776878520
 C        -2.6993572718        1.3811530875       -1.1139768110
 C        -2.3273300529        0.9487147857       -2.5288534056
 C        -1.4435141826        1.9532075659       -3.3517746111
 O        -0.2385818684        1.1707835648       -0.7708973418
 O        -2.6501701899       -0.1336316550       -3.0193176557
 C        -3.6258354763        0.2770054219       -0.4908247752
 C        -3.3696604053        2.8080521063       -1.0611529558
 C        -1.5365904279        1.7563296451       -4.8748797616
 C        -0.6158754155        0.6004387062       -5.5424983115
 C        -0.2834524713        0.5842602208       -7.1091372473
 C         1.0575760521        1.3352629529       -7.0703903520
 C         2.3385293589        0.5287038690       -7.0187149611
 C        -0.2020894647       -0.8368335720       -7.7369217502
 C        -1.4030305896        1.4493092169       -7.8282143375
 O         0.0981518049       -0.0624421107       -4.7454419227
 O         1.0874789450        2.5236338635       -6.8659083299
 C         3.2323247064        1.2369885699       -6.0676239100
 C         4.1470865254        0.3808204793       -5.2578439695
 C         4.7992896668        0.8677176304       -3.8839172024
 C         3.7005277759        0.1713032046       -2.9169122897
 C         4.1458703961       -1.0264656804       -2.1140116821
 O         4.3651847260       -0.7539640800       -5.5305608783
 O         2.5709490003        0.6632631489       -2.7913733236
 C         6.3010444636        0.4955075301       -3.6703016881
 C         4.7902530691        2.3653965521       -3.6262662935
 C         3.8044006883       -2.4483347085       -2.7270235262
 C         2.4304486074       -2.8729297581       -2.3478418486
 C         1.9614882284       -4.3359412868       -2.5659336947
 C         2.1282817939       -5.0225469283       -1.1137284457
 C         1.0401788186       -5.6324437440       -0.2468917627
 C         0.4970223104       -4.1891726581       -3.1090906250
 C         2.9199270250       -5.2203823169       -3.5023870332
 O         1.6355239859       -2.0773020011       -1.7754804253
 O         3.2045528037       -4.9536924019       -0.5812381254
 C         1.5393695496       -6.0392239668        1.1426387697
 C         0.5225164080       -6.9422687424        1.8624602284
 C         1.0080109769       -7.6177388950        3.1498801623
 C         1.9882874910       -8.8173202261        2.7320450267
 C         2.1436823588      -10.0391733308        3.7208959731
 O        -0.5389517974       -7.2217485711        1.4429855786
 O         2.7180581416       -8.7019408552        1.7513420187
 C         1.8747673133       -6.5719906627        3.9603317793
 C        -0.2588375698       -7.9668280123        3.9999082187
 H        -3.8000541741       -3.9194459808        3.4219938320
 H        -2.1826869467       -3.4815416318        3.7801922907
 H        -3.4098382774       -3.4448930635        4.9931464065
 H        -6.1748735535        0.5968169343        5.1162046602
 H        -4.4349853411        0.4073255412        5.3663691490
 H        -5.1210902714       -3.0775237595        1.7829102411
 H        -4.8861798397       -1.4408983573        1.1149939012
 H        -6.5249755006       -1.9817831104        1.8604155186
 H        -6.7110371522       -1.7000943040        4.7178942171
 H        -5.9008653307       -3.1805046966        4.4006136450
 H        -5.2821526901       -1.7719224036        5.4660618946
 H        -4.9863543277        2.9466920584        3.7856799391
 H        -6.2496631505        2.6756384074        5.1016358066
 H        -1.1375613431        5.3330033728        5.6754404280
 H        -1.0172646486        3.8011880199        4.8762435923
 H        -5.5648811568        5.4843665261        6.6224345207
 H        -5.7791282409        5.1229515928        4.9077556966
 H        -4.7668226802        6.4492065868        5.5012648496
 H        -2.0173948913        4.5255292383        7.0815428933
 H        -2.9414219724        6.0655990677        7.1364720483
 H        -3.3099887823        4.6960704292        8.0932629320
 H        -0.1892488297        6.5563540816        3.8160021346
 H        -1.4144677210        5.8544269681        2.7584700802
 H         0.3395198223        2.1955446057        1.8693889923
 H        -0.8885246605        3.0980534286        2.5736733635
 H         1.2855415792        6.0357202393       -0.1580315466
 H         2.0982996025        6.6914802517        1.2170630990
 H         0.2652374831        6.6467958509        1.0628552795
 H         2.5844974582        3.3513879026        2.2962048445
 H         2.4748940544        3.4120263493        0.5071982990
 H         3.2619612141        4.6891376712        1.4424375747
 H        -1.2975047959        0.9266487858        1.5895675309
 H        -2.5503425697        2.1044434816        1.3486563099
 H        -1.7257783283        2.9833473728       -3.0248833550
 H        -0.3501821935        1.8852016244       -3.0808376346
 H        -3.4221788053       -0.6458575928       -0.9861209034
 H        -4.6112093666        0.4815723470       -0.8414189824
 H        -3.6608077126        0.0877940595        0.5604776441
 H        -2.7538741362        3.6190570419       -1.4198794494
 H        -4.3007419402        2.8223545493       -1.7106007362
 H        -3.7191486547        2.9892472360        0.0235739913
 H        -1.2234319986        2.6520584684       -5.3919401815
 H        -2.5837535005        1.7137350556       -5.2347847665
 H         2.0768565861       -0.4394673642       -6.7648110633
 H         2.8593230203        0.4380407609       -7.9552832364
 H         0.3796331034       -0.9005287612       -8.6943053678
 H        -1.1410312234       -1.1852618340       -8.0159197409
 H         0.1550004044       -1.5080044701       -6.9787891394
 H        -1.5857363356        2.4453424068       -7.3768861211
 H        -1.2881818522        1.6475455106       -8.9018772523
 H        -2.3378228061        0.9849096487       -7.5808302700
 H         3.8691719551        1.9637948696       -6.6160040843
 H         2.6257184279        1.9133771778       -5.4926523617
 H         5.1320648914       -0.8982019435       -1.7251407557
 H         3.4689459906       -0.9407869231       -1.2493568891
 H         6.9540155280        0.9564594942       -4.3754185706
 H         6.3617000332       -0.5890195040       -3.7061102197
 H         6.6084532051        0.7619414225       -2.7088417032
 H         3.8323448399        2.8289425719       -3.4762582527
 H         5.3283357566        2.5756595993       -2.6989881939
 H         5.3290673903        2.8777587015       -4.4011043492
 H         4.4437112253       -3.2816896286       -2.4144373562
 H         3.8214740296       -2.3967777793       -3.8119772189
 H         0.1467280450       -4.9309590631       -0.2709447618
 H         0.5914710501       -6.5339456516       -0.6789714847
 H        -0.0596809910       -5.0764573744       -2.9141208499
 H         0.4696437816       -3.9635476165       -4.1630260491
 H        -0.0493057107       -3.4899131773       -2.5025320012
 H         2.2700213572       -6.0371077559       -3.8878605085
 H         3.2470460691       -4.6410612000       -4.3384390941
 H         3.7705715657       -5.4900674980       -2.8354615470
 H         2.4626942560       -6.6726087906        1.0982065240
 H         1.6786904683       -5.3147195481        1.9046733839
 H         1.1515683033      -10.5305840425        3.8495710776
 H         2.7856088378      -10.7468579152        3.1711127602
 H         2.6863462853       -9.7100467050        4.6294446552
 H         1.4749331907       -5.5415942951        3.9842843040
 H         2.8614192017       -6.4460827155        3.5349999104
 H         1.9364321390       -6.6624167148        5.0643875907
 H        -0.8544591610       -7.0360571381        4.3889522572
 H        -1.0196606214       -8.6769282421        3.5756402821
 H         0.0584026221       -8.5066167161        4.9219677007
 Na        0.3798024161       -0.1297526147       -2.5531989454
