155

 C        -2.9198288622       -3.4001164475        3.8073585433
 C        -3.3760668106       -1.9617793283        3.4817967137
 C        -4.9551825298       -1.5649377940        3.3301497420
 C        -4.9610081835        0.0814134017        3.4162814226
 C        -5.2007094124        0.7320419014        4.7972551278
 C        -5.5436699727       -2.1419739008        1.9699843620
 C        -5.8321824251       -2.1987103825        4.4094508337
 O        -2.4689915652       -1.2149626338        3.0603289019
 O        -5.0215591577        0.6401703051        2.3727882703
 C        -5.2923317955        2.2788717600        4.8658861704
 C        -4.3024034002        3.0148751767        5.8842058660
 C        -3.8891354581        4.4725061744        5.8362062586
 C        -2.9942243278        4.7667400473        4.4156916537
 C        -1.4589055012        4.9483533452        4.6383819769
 O        -3.7843842100        2.2756263648        6.7073165035
 O        -3.5319062050        4.9280615584        3.3273647887
 C        -5.1786785347        5.3159632639        5.5075703412
 C        -3.2223620247        4.7314420062        7.2228467291
 C        -0.6130027953        5.6639114438        3.5844484359
 C         0.6695633713        4.9706001968        3.1364139103
 C         0.9668363413        5.0853159695        1.6878684446
 C        -0.0014440943        3.9584585592        1.0373715247
 C        -0.5096310350        2.7374138201        1.8344205430
 C         1.1427066150        6.5480234096        1.0877668956
 C         2.3539752017        4.2444727823        1.5315582725
 O         1.2991939775        4.3065086155        3.9626975584
 O        -0.4458567863        4.1130302250       -0.0643110512
 C        -1.6941413940        1.9856381893        1.1621915079
 C        -1.3904685450        1.4360454254       -0.1756470577
 C        -2.5505259312        1.3192714739       -1.2544668429
 C        -2.1058142878        0.8871348675       -2.7297429632
 C        -1.4026330283        2.0152643180       -3.5087071819
 O        -0.2454585226        1.2384894462       -0.5224539160
 O        -2.4132743558       -0.1451970156       -3.2666075143
 C        -3.6041733608        0.3200927618       -0.7272968609
 C        -3.3209461963        2.7738643817       -1.3342512730
 C        -1.4214037064        1.7461832940       -4.9858676453
 C        -0.5846449983        0.5676082184       -5.4679185112
 C        -0.2197796907        0.7663681560       -7.0075370421
 C         1.1034810621        1.4906815397       -7.0776882461
 C         2.3302568652        0.5358969829       -7.0739849586
 C        -0.2533028310       -0.6319609564       -7.7359965728
 C        -1.3673402851        1.5415326787       -7.7926183940
 O        -0.0505997825       -0.2563731420       -4.8181394741
 O         1.1243282763        2.7273098717       -7.1209766782
 C         3.4376655409        1.1259534005       -6.0699689487
 C         4.3065944355        0.2013650827       -5.2075402443
 C         4.8161330943        0.8776173343       -3.8445376630
 C         3.7439862521        0.3433648739       -2.8001034609
 C         4.0594270694       -0.9503445325       -1.8761819098
 O         4.6477723606       -0.9489120508       -5.4810525232
 O         2.6400705217        0.8224374917       -2.7846828967
 C         6.2545526578        0.3118646460       -3.6457166426
 C         4.6548624829        2.4161120829       -3.9285000221
 C         3.8037856174       -2.2753151911       -2.5865091895
 C         2.3161326461       -2.7746129618       -2.3639219959
 C         2.0289226308       -4.2958824132       -2.6645613442
 C         2.2434361347       -4.8631378810       -1.1624026994
 C         1.0677298190       -5.5092174363       -0.4104105227
 C         0.6245673875       -4.5955141070       -3.2224853376
 C         3.0792985521       -5.0062749360       -3.5696081994
 O         1.4650267276       -2.1270197555       -1.8526573949
 O         3.3464367100       -4.8609321948       -0.6694402043
 C         1.5789534371       -5.8935256997        0.9444859363
 C         0.5709508295       -6.9498392537        1.7477577608
 C         1.0723476563       -7.3863250853        3.2067727702
 C         1.9640288523       -8.6321609486        2.7945357227
 C         1.9054612692       -9.9817078921        3.5914306637
 O        -0.4098199728       -7.4607477181        1.1881120868
 O         2.4410026837       -8.6843340238        1.6870693528
 C         1.8600568436       -6.4117965409        4.1306541457
 C        -0.1347751061       -8.0180705195        4.0061604833
 H        -2.8471785652       -3.8162014237        2.8089971795
 H        -2.0053656408       -3.5899334812        4.3191405192
 H        -3.6454290614       -4.0584730960        4.2654934904
 H        -6.0967464704        0.2188267688        5.1512133987
 H        -4.3545802025        0.2599473652        5.3735327826
 H        -5.6629534368       -3.1953795457        2.0769737414
 H        -4.8125741856       -1.8929545943        1.1945887492
 H        -6.4967208387       -1.6990337547        1.7969272532
 H        -6.9245252176       -1.8679619459        4.2324826789
 H        -5.8063068578       -3.2668033761        4.4283318749
 H        -5.6644607330       -1.7806732776        5.3596013540
 H        -5.0665948962        2.5963669311        3.8100392448
 H        -6.2804602997        2.5705764939        5.1401846625
 H        -1.4799331490        5.4812427787        5.6003084527
 H        -1.0930108252        3.9457066206        4.8322584255
 H        -6.0032084168        5.1542520276        6.2589323213
 H        -5.5604701780        5.0000694768        4.5656287028
 H        -5.0177836921        6.3782372252        5.4000024980
 H        -2.8782492229        3.8409246755        7.7214849920
 H        -2.5443361698        5.5710364756        7.3832961897
 H        -4.0231444313        4.9586497242        7.8901711234
 H        -0.3945760459        6.7220772420        3.9083054287
 H        -1.2038034946        5.8318199775        2.6816444350
 H         0.2213234032        2.0086577300        2.1168336297
 H        -0.8939420231        3.1087841974        2.8329989474
 H         0.9726051744        6.6120493764       -0.0300203625
 H         2.1437589661        6.9130730049        1.3524335265
 H         0.3385195069        7.2415256722        1.4937137624
 H         2.3633263026        3.3537930190        2.1718160215
 H         2.3248150259        3.7912128955        0.5177647882
 H         3.2280879212        4.8846823541        1.5901901115
 H        -1.9581015481        1.1470874606        1.8443848573
 H        -2.5263768427        2.6359794968        1.1582543126
 H        -1.8966250882        2.9672515750       -3.3002633268
 H        -0.4165715764        2.1908443658       -3.0819896857
 H        -3.1507288147       -0.6943890888       -0.5680179351
 H        -4.5148063271        0.2128700900       -1.3825751608
 H        -3.9792559609        0.5622826106        0.2973229634
 H        -2.5259213128        3.5295984155       -1.3874333989
 H        -3.6627881083        2.8795100560       -2.3418835171
 H        -4.0876750067        2.9703612086       -0.6339327579
 H        -1.0398243878        2.6353462849       -5.5625879604
 H        -2.4428140857        1.7089790483       -5.3666535420
 H         1.8798846682       -0.5421477338       -6.9185858666
 H         2.7754448682        0.5441640580       -8.1124967916
 H         0.0404551357       -0.5826607758       -8.7540304775
 H        -1.3207570412       -1.0469355282       -7.6818873795
 H         0.2925114463       -1.4145236002       -7.1793296167
 H        -1.2641019171        2.6155691640       -7.7616279280
 H        -1.4080414896        1.3058377329       -8.8480021217
 H        -2.3324250863        1.3643870838       -7.3533038713
 H         4.0866363843        1.8211308554       -6.5944936582
 H         2.9196083559        1.8723861032       -5.4023810665
 H         5.1520794314       -0.9321237299       -1.6518897189
 H         3.5420660185       -0.8560032704       -0.9157797754
 H         6.9476178564        0.9441739944       -4.2156047391
 H         6.3297100290       -0.7562748674       -3.7935320869
 H         6.6035839428        0.5032529964       -2.5744317005
 H         3.6586953584        2.6820860081       -3.5826447610
 H         5.2487865481        2.9695494896       -3.2368287835
 H         4.7827151135        2.8030241960       -4.9321226509
 H         4.4638537435       -3.0670612131       -2.1592711627
 H         4.0542450413       -2.1289602301       -3.6759666119
 H         0.2785245111       -4.7883847705       -0.3501056782
 H         0.6438067116       -6.3057051986       -1.0586130698
 H         0.4908987613       -5.6768253401       -3.4296123563
 H         0.5455620993       -4.1798697447       -4.2266925945
 H        -0.1868904984       -4.2848191587       -2.5658589971
 H         2.8571494120       -6.0059329011       -3.4227704256
 H         2.9204385396       -4.7689508418       -4.6350977682
 H         4.0032924840       -4.7206753440       -3.2011465120
 H         2.4643022127       -6.4974591235        0.9565099865
 H         1.6631604745       -4.9642583162        1.5808714538
 H         0.9059346901      -10.3744190731        3.3544425584
 H         2.6968003494      -10.6898040107        3.2500464264
 H         2.0530968376       -9.7516123652        4.6652024502
 H         1.2802327209       -5.7888236145        4.7721662477
 H         2.6122622146       -5.8223428336        3.6676785144
 H         2.3014699020       -6.9909963895        4.9039755309
 H        -0.6850897178       -7.2623905504        4.4688888900
 H        -0.8410370785       -8.5524127776        3.3633840978
 H         0.0803694801       -8.7141064124        4.8001693748
 Na        0.4599932362       -0.2893021503       -2.2256988523
