155

 C        -2.9254641051       -3.5295910252        3.5202047079
 C        -3.3123846176       -2.0296713579        3.3154492619
 C        -4.8247203911       -1.7007012092        3.3589133560
 C        -4.9166228809       -0.0482022933        3.3748032880
 C        -4.9842452860        0.5726076565        4.8112918583
 C        -5.4948349207       -2.3531539127        2.0930503961
 C        -5.5434959845       -2.4399062592        4.5189060941
 O        -2.4638058494       -1.1584663979        3.3591100890
 O        -4.8709609073        0.5113475560        2.3115613504
 C        -4.6682857206        2.0047175843        4.7383253483
 C        -4.3419962186        2.7740355840        6.0604652384
 C        -4.2456549096        4.3259548174        5.7686884719
 C        -3.1259369031        4.5610558490        4.6877064532
 C        -1.7048545577        5.0274830121        5.0343093142
 O        -4.1002768008        2.2889567009        7.1014901489
 O        -3.3922035391        4.0883050303        3.6027995592
 C        -5.6082088283        4.9274617845        5.1611465295
 C        -4.0202574353        4.9553856472        7.1143508662
 C        -1.1109085135        5.5443366630        3.7196487710
 C         0.3147711845        5.0820822524        3.4426887229
 C         0.7106432599        5.0800878057        1.9613468147
 C        -0.2163506700        4.0394314577        1.1882083448
 C        -0.4731385343        2.6200169751        1.7804391797
 C         0.4218257223        6.4805329495        1.3772101811
 C         2.1085947240        4.6773462551        1.8224380049
 O         1.1751759734        4.5861891300        4.1321958780
 O        -0.6286920534        4.1856796443        0.0634847775
 C        -1.7982968834        1.9878121471        1.1486167172
 C        -1.5418231317        1.4075632973       -0.2103034802
 C        -2.6983614949        1.4337816148       -1.3407685011
 C        -1.8106226815        1.1521988352       -2.6021621311
 C        -1.1227772967        2.2546452445       -3.3444329576
 O        -0.4589752064        0.9185967662       -0.4442645176
 O        -1.6742677232       -0.0382426330       -2.8626120060
 C        -3.5329506325        0.2114496958       -0.9612500600
 C        -3.5190623333        2.7763348503       -1.2838451133
 C        -1.0339472004        2.1243351274       -4.9426682178
 C        -0.2692378854        0.8815038589       -5.5368880899
 C        -0.1973435004        0.6703074607       -7.1473650428
 C         1.3007090581        1.2470967894       -7.3716677464
 C         2.3800487959        0.3171722309       -6.8803570763
 C        -0.3694484580       -0.7679664482       -7.4637106956
 C        -1.1019769287        1.5355405869       -7.9674428004
 O         0.2866215426        0.1574399975       -4.7862787271
 O         1.4324301080        2.4337048140       -7.6351572047
 C         3.5522210475        1.1165123732       -6.1828443220
 C         4.3658331246        0.3080963959       -5.2578153496
 C         4.7832056218        0.7921818819       -3.6926520649
 C         3.4777374827        0.4672000388       -2.9360185075
 C         3.4176278742       -0.6583840092       -1.7726963072
 O         4.5570943548       -0.8912040014       -5.3933645935
 O         2.5299668031        1.2088652610       -3.2044182533
 C         6.0101841051       -0.0625083818       -3.4084635128
 C         5.0201245553        2.2967197415       -3.4546368306
 C         3.5660374534       -2.0991325322       -2.3483896625
 C         2.1873368691       -2.7534006834       -2.5763557735
 C         2.2834517675       -4.2675909637       -2.6602902190
 C         2.5922627222       -4.8864551197       -1.2913759646
 C         1.4484959658       -5.5689736824       -0.5008578346
 C         0.9710169621       -4.8242264838       -3.2084710960
 C         3.4613401207       -4.7987967154       -3.6185537269
 O         1.1915244856       -2.1604870188       -2.4004823984
 O         3.6737856453       -4.9521630371       -0.7306034929
 C         1.7296947078       -5.7391232824        0.9600991385
 C         0.6845723988       -6.6989726808        1.5646009157
 C         0.9753829074       -7.4233303800        2.8704067842
 C         1.8954595964       -8.6996434276        2.6460947552
 C         1.7024978554       -9.9016850470        3.6465290091
 O        -0.3624494533       -6.8830266298        1.0013879719
 O         2.7770287636       -8.7057879317        1.7832953902
 C         1.8850714919       -6.4943613429        3.7916929020
 C        -0.4209040613       -7.8365711226        3.5648438162
 H        -1.9057532948       -3.6238509893        3.3406473533
 H        -3.1127132339       -3.8947967519        4.4990032359
 H        -3.3713920558       -4.2137969886        2.8856801733
 H        -5.9785329728        0.3863722898        5.2174817014
 H        -4.2616251423       -0.0510759190        5.3923843520
 H        -5.0452332705       -3.3524072963        2.1083199461
 H        -5.2656658924       -1.7107158099        1.2109796380
 H        -6.5683793239       -2.3871479127        2.0944910905
 H        -6.5062177391       -1.8853758216        4.5977550634
 H        -5.7014207502       -3.5017393738        4.4568674842
 H        -4.9868279298       -2.2882763928        5.4151602910
 H        -3.8379495916        2.2481609046        3.9971617262
 H        -5.5335395846        2.5109163435        4.3660567209
 H        -1.7447849516        5.8115700050        5.7862032096
 H        -1.0334835023        4.2180254160        5.2303751303
 H        -6.5602337156        4.5618652294        5.5541826783
 H        -5.6459364745        4.6173481107        4.1112183363
 H        -5.4748978353        5.9741671566        5.1261678942
 H        -2.9718415045        5.0047616891        7.4257725279
 H        -4.4356026675        5.9788112680        7.2785382374
 H        -4.5701885999        4.3473756271        7.8627143086
 H        -1.3208665378        6.6064848667        3.5286440025
 H        -1.5548610470        5.1061916740        2.8213447220
 H         0.3163035200        1.9866781521        1.5501357752
 H        -0.4487723780        2.5544041914        2.8742398657
 H         0.9493463081        6.6015942999        0.4200839045
 H         0.7360717428        7.2037883266        2.1269650684
 H        -0.6097968451        6.7892748042        1.1898091517
 H         2.0892030780        3.6162782340        1.5374749834
 H         2.5785174273        5.2208783425        1.0399960664
 H         2.6346142329        4.9334520341        2.6697672257
 H        -2.2245686892        1.2352358099        1.7688990319
 H        -2.4872783209        2.7570375682        1.1556393255
 H        -1.5802904471        3.2150065736       -3.0481190374
 H        -0.0995661144        2.3696866797       -2.8342741176
 H        -2.9956027980       -0.6023718911       -0.5905640097
 H        -4.3454781636       -0.0342216477       -1.6073739031
 H        -4.0653811876        0.5680434262       -0.0956633527
 H        -2.9513661460        3.5601723474       -1.7626164968
 H        -4.5215884489        2.6592510705       -1.7972764786
 H        -3.7134111282        2.9229754694       -0.2071173491
 H        -0.5452008419        3.0771357786       -5.2496087554
 H        -2.0152006625        2.0450485934       -5.4198213319
 H         1.8128928547       -0.4269579647       -6.1692420540
 H         2.7861304444       -0.1913761382       -7.7969991034
 H         0.0981695963       -0.9604667875       -8.4104314897
 H        -1.4449110269       -0.9868390721       -7.4939888133
 H         0.0393732402       -1.5310237381       -6.8136813229
 H        -1.1243164174        2.6109620174       -7.7035851302
 H        -0.8943027388        1.4194326379       -9.0294071043
 H        -2.0729413971        1.1798343843       -7.9651616298
 H         4.1898890758        1.5211380716       -6.9373034967
 H         3.3148331172        2.0303130024       -5.5667236120
 H         4.1864331368       -0.4918794325       -1.0015555879
 H         2.4742349727       -0.5764038806       -1.2366788564
 H         6.7824032297        0.1927508435       -4.0933297206
 H         5.7917895460       -1.0886906198       -3.6110832887
 H         6.3520622731        0.0552235181       -2.3737993707
 H         4.1030697307        2.8068183557       -3.7387482861
 H         5.2672782935        2.5731554296       -2.4373689181
 H         5.7645229334        2.7173043543       -4.1026200365
 H         4.1259443999       -2.7218509568       -1.6171247806
 H         4.1220356003       -2.1220582644       -3.3176874561
 H         0.5995268654       -4.9152723223       -0.6570873750
 H         1.2865103985       -6.5970227206       -0.9335579678
 H         0.8813702199       -5.8886104807       -3.1196361269
 H         0.9404629680       -4.6476487796       -4.2628319618
 H         0.1289225620       -4.2759250567       -2.8532495547
 H         3.0675300109       -5.7156409575       -3.9709064987
 H         3.7538449447       -4.0630606490       -4.4268078181
 H         4.2384742866       -5.0672584302       -2.9467853666
 H         2.6561967291       -6.2321082629        1.0642779470
 H         1.5654806495       -4.7732137717        1.5002824248
 H         1.1089153775      -10.7519507847        3.1930085009
 H         2.7823020169      -10.1904167523        3.8084982919
 H         1.1619587733       -9.5543105505        4.5648689481
 H         1.7211223511       -5.3968672136        3.6667791502
 H         2.9015399867       -6.7128169961        3.8197901921
 H         1.6298955140       -6.7315483244        4.8547402109
 H        -1.2478404016       -7.0343726369        3.4769155131
 H        -0.8702325299       -8.7886584419        3.1044650210
 H        -0.3535720969       -8.0276872217        4.6697568402
 Na        0.5073015245        0.0070028374       -2.5443768439
