155

 C        -1.8209416816       -4.2553240646        2.9917418757
 C        -2.5067741235       -2.8781814107        2.6912674961
 C        -3.9225998524       -2.6679046147        3.3476284985
 C        -4.3004187534       -1.1820106578        3.2726630677
 C        -4.3289412181       -0.2408890930        4.4328864706
 C        -4.9501111806       -3.5068169687        2.5407071597
 C        -4.1071735160       -3.1643874515        4.8710971658
 O        -2.1260735534       -2.0549439729        1.9175150762
 O        -4.4952836099       -0.7331195038        2.1333872290
 C        -4.9409469357        1.1259934072        4.1062005428
 C        -4.7941920751        2.0425317554        5.2827457435
 C        -5.5451027451        3.5403712138        5.1367370912
 C        -4.5286452337        4.2412937309        4.1549223867
 C        -3.4560254087        5.0728839172        4.8469086589
 O        -4.0915991207        1.8275103044        6.3127294057
 O        -4.7905693253        4.1497046414        2.9748671564
 C        -6.9469276877        3.6013280629        4.5279368090
 C        -5.4930127256        4.2237209926        6.5108038471
 C        -2.3875499916        5.6875913363        3.8911749655
 C        -1.0174197456        5.0779334793        3.9241198893
 C        -0.0998413038        5.1368977406        2.6097419694
 C        -0.7930142302        4.2003652708        1.5925906894
 C        -0.9382646004        2.6841434326        2.0007311476
 C         0.0117853535        6.6114242911        2.0055283653
 C         1.3828163617        4.6505412664        3.0549206441
 O        -0.5108141050        4.7122286616        4.9813367811
 O        -1.2375900643        4.6908917521        0.5833625103
 C        -2.0837159959        2.0439997109        1.3179366934
 C        -1.6706425501        1.5455047556       -0.0862627641
 C        -2.7011333181        1.5057079365       -1.1980825496
 C        -1.9434552933        1.2210408183       -2.5396520279
 C        -1.3619465450        2.3803802485       -3.3963477539
 O        -0.5509130721        0.9740995458       -0.3276048860
 O        -1.7327099276        0.0521318382       -2.9375827377
 C        -3.5374987412        0.2424098233       -0.7911339579
 C        -3.5631382040        2.8147691302       -1.2432301556
 C        -1.2436147891        2.0963362956       -4.9447642986
 C         0.0649239886        1.3460730033       -5.3247984514
 C         0.3719272953        0.9988157550       -6.8072810603
 C         1.9001704049        1.3172016399       -7.1206733178
 C         3.0258022344        0.5308142350       -6.6372327982
 C         0.0008882858       -0.5766297637       -6.9409103771
 C        -0.5474923045        1.7945705772       -7.7673779630
 O         0.8599496335        0.9821601997       -4.4554950805
 O         2.2408245779        2.2745391585       -7.8050319362
 C         3.5791031945        1.2292387754       -5.2700918114
 C         4.7467175157        0.4332891956       -4.6864718387
 C         5.2919723938        1.0298632030       -3.2920276876
 C         4.0285554997        0.6278441904       -2.3039004073
 C         4.2951662285       -0.5574947182       -1.2654773812
 O         5.0781799790       -0.6433650079       -5.1101673351
 O         2.9414279213        1.2602063687       -2.2751388715
 C         6.6661713044        0.6296564143       -2.8155207806
 C         5.2131210942        2.6002044228       -3.3064492687
 C         4.1749091124       -2.0078980497       -1.9953876136
 C         2.7435762123       -2.3864915407       -2.2790757155
 C         2.4392784394       -3.7474769053       -2.8432646194
 C         2.5244716527       -4.7517616541       -1.7170525283
 C         1.5166728096       -5.8222651285       -1.4259199278
 C         1.0850199766       -3.8718278449       -3.6127477940
 C         3.5861394856       -4.0008311960       -3.9159212699
 O         1.8342788808       -1.6652292196       -1.8632275948
 O         3.4595624558       -4.7092105038       -0.9576444887
 C         1.8145301071       -6.5433704335       -0.1339925400
 C         0.7448612806       -6.1813291414        1.0940185742
 C         0.9382677757       -7.0874930674        2.3459699202
 C         1.9546989858       -8.3194321881        2.1960641825
 C         1.4612795193       -9.8027580082        2.0257152891
 O        -0.0664356125       -5.2731781439        0.9967444777
 O         3.1155402575       -8.1020905840        2.2198368464
 C         1.5727312798       -6.0755705958        3.3382747195
 C        -0.4875902776       -7.4826463246        2.8355969245
 H        -2.5780301512       -4.9779330427        3.3522296905
 H        -1.2520270182       -4.6164765400        2.1076287244
 H        -1.0247024681       -4.2322052025        3.7206204939
 H        -4.7899378921       -0.6812346346        5.2845420661
 H        -3.2862213586       -0.1553271037        4.6970138750
 H        -4.6298210651       -4.5322539092        2.4563572190
 H        -5.1186437447       -3.0692698864        1.5641612987
 H        -5.9273699677       -3.4876293867        2.8648606985
 H        -5.1157111232       -2.8771996677        5.1033534854
 H        -4.0641524484       -4.2010104782        5.0961350576
 H        -3.3357946504       -2.7017464419        5.4769355775
 H        -4.4578624549        1.6037782223        3.2703324378
 H        -6.0584128178        1.1668271827        3.9017907450
 H        -3.7730069601        5.7615061297        5.5794115638
 H        -2.9586720415        4.4554444708        5.6026792545
 H        -7.6845010398        2.9937871848        5.0641611435
 H        -6.7799774492        3.1336729140        3.5113254041
 H        -7.2154575707        4.6124179031        4.5229919465
 H        -4.4616600109        4.2288283995        6.7441530331
 H        -5.8778013572        5.2643983766        6.4776741382
 H        -6.1303151511        3.6185804175        7.1477871144
 H        -2.2563984490        6.7359228151        4.0623100783
 H        -2.8750989338        5.5614816946        2.8773849632
 H         0.0069607651        2.1819187886        1.7405529490
 H        -1.0213129524        2.6716493220        3.1111589441
 H         0.1412317674        6.4772865938        0.9073315003
 H         0.7130328396        7.3416240316        2.4230523562
 H        -0.9674275518        7.0704041139        2.1618869881
 H         1.2541837231        3.6262491577        3.6055199931
 H         2.0362558589        4.5010731153        2.1608268408
 H         1.9000440941        5.4040788399        3.6002914593
 H        -2.4778227676        1.1092978126        1.7850796446
 H        -2.9397786352        2.6585823210        1.2171460447
 H        -1.8486752920        3.3483081155       -3.0906980285
 H        -0.3057564679        2.3721441155       -2.9686144971
 H        -3.0097610523       -0.2578038482        0.0340030770
 H        -3.8275916501       -0.4559194110       -1.6427201257
 H        -4.5098686868        0.6256191600       -0.3441652706
 H        -2.9791518162        3.6565763932       -1.1198277202
 H        -4.1806835324        2.9055691490       -2.1561681778
 H        -4.1912848776        2.7392620848       -0.3541320729
 H        -1.0594887235        3.0562510440       -5.5057574486
 H        -2.1682348472        1.7237310579       -5.3709552398
 H         2.9201347718       -0.5387844707       -6.3470304060
 H         3.6932281989        0.7313055055       -7.5302432970
 H         0.2481644231       -0.9518600774       -7.9441640901
 H        -1.1241692662       -0.6812266048       -6.8769114435
 H         0.5536767527       -1.2323989801       -6.2693064117
 H        -1.0033424532        1.0493542116       -8.4807733732
 H        -1.4391470494        2.3311914245       -7.3266116990
 H         0.0345763280        2.5906529317       -8.0966648484
 H         3.8769268633        2.2769229822       -5.3742513329
 H         2.8363396465        1.2489931701       -4.5612055490
 H         5.2980112331       -0.4053008730       -0.8432829444
 H         3.5800753727       -0.6006026805       -0.4512598128
 H         7.4427171627        1.1606906219       -3.3977933226
 H         6.8680547270       -0.4670110825       -2.8900759454
 H         6.7150864493        0.9187726173       -1.7103620081
 H         4.1457850279        2.8228330197       -3.3123015757
 H         5.7524454244        3.0766810135       -2.5210218730
 H         5.6481573755        3.0778899375       -4.1872476831
 H         4.5372662608       -2.6963687864       -1.2523965468
 H         4.7998676575       -2.1549937879       -2.8679052542
 H         0.4774836082       -5.3763663464       -1.3561283987
 H         1.3719751700       -6.5270617838       -2.2467369604
 H         0.9512594745       -4.9173596230       -3.9704615314
 H         1.1710747852       -3.1241857016       -4.3959065383
 H         0.2684667311       -3.3876995203       -3.0982263728
 H         3.4693303294       -4.9105171395       -4.4725314995
 H         3.6201128346       -3.1584562198       -4.6336891620
 H         4.5635240181       -4.2218728671       -3.4612585369
 H         1.8033859828       -7.6623182387       -0.2640170205
 H         2.7798678930       -6.4541921666        0.2934650022
 H         2.2094145887      -10.2970837371        1.4111818177
 H         1.4308119626      -10.3226274618        2.9469958129
 H         0.5000500165       -9.7759117887        1.6190268199
 H         0.7501079158       -5.3092828014        3.3973553482
 H         2.4634077510       -5.6801812923        2.9080533317
 H         1.9760613091       -6.6444782961        4.1888477744
 H        -0.9232703029       -6.6498608248        3.2545934988
 H        -1.0618197557       -7.7484109200        2.0405948137
 H        -0.4057819004       -8.2126065145        3.5775071857
 Na        1.0070415791        0.2952310661       -1.7293008982
