155

 C        -1.4473175828       -1.7258886789        4.6413219837
 C        -2.1937512737       -1.9510347803        3.3307368770
 C        -3.7077222929       -2.4988958688        3.3873991279
 C        -4.6711115954       -1.2336621764        3.3182480102
 C        -5.7090978280       -1.0970589886        4.3963119042
 C        -3.8346996927       -3.3619483012        2.0292072250
 C        -3.9776789849       -3.4245732450        4.6129687935
 O        -1.6909907909       -1.6298835435        2.3051938840
 O        -4.7040150317       -0.4383659316        2.3670810645
 C        -6.5461623001        0.2319758775        4.2961241034
 C        -5.6677076101        1.3612654268        4.6234697904
 C        -6.5024528344        2.8548720786        4.4265100749
 C        -5.7101896166        3.8564185281        3.5676141616
 C        -4.5296841768        4.4904888952        4.2487753459
 O        -4.5525787509        1.4284824569        5.0646649927
 O        -5.9717169886        4.1277073223        2.4348052022
 C        -7.8728418467        2.6927996341        3.6473763492
 C        -6.7099296834        3.4272922409        5.8743660285
 C        -3.5229526285        5.1171557191        3.1912974388
 C        -2.0831330058        4.9195855238        3.7336857792
 C        -0.7951904170        5.1373019798        2.8420776624
 C        -0.9982528777        3.9104371290        1.9035516686
 C        -1.2454636822        2.4482158670        2.5237583066
 C        -0.8468059992        6.5983065063        2.2706262619
 C         0.6103139369        4.9454326292        3.5755974104
 O        -1.9422042333        4.7671287683        4.9047878738
 O        -0.9049442165        4.1216636341        0.7236281528
 C        -2.1325814643        1.7048332858        1.6011764051
 C        -1.5069563427        1.5338309356        0.1492340253
 C        -2.5524095084        1.2517766570       -1.1654347085
 C        -1.8078272143        1.1061276283       -2.4573737114
 C        -2.0219868312        2.2413504102       -3.4372641511
 O        -0.3246514936        1.5044768153       -0.0443850259
 O        -1.1819851518        0.0536664093       -2.7090034365
 C        -3.1802856591       -0.1253169099       -0.6654951906
 C        -3.6197853723        2.4819969311       -1.0469068330
 C        -1.2532555754        2.2677261045       -4.7526232495
 C         0.2731139040        2.0733606632       -4.8688145095
 C         0.7753448588        1.7507736436       -6.2942041343
 C         2.3309253920        1.8033608974       -6.5720823314
 C         3.3256676270        1.1999637451       -5.6107332720
 C         0.5293820768        0.1874945016       -6.7293215634
 C         0.1275528797        2.5625759612       -7.4968835942
 O         1.0765887399        2.0346283150       -3.9772241166
 O         2.6928272523        2.2354035802       -7.5999971896
 C         4.1803217860        2.1291458398       -4.6669900764
 C         5.1091465800        1.1706801640       -3.9806971196
 C         5.6052008625        1.4451979719       -2.5070530029
 C         4.0818226841        0.8916744921       -1.7615771679
 C         4.2496723020       -0.4075820114       -0.9972243993
 O         5.4609319988        0.0962052028       -4.4739056689
 O         3.1943871141        1.6794247775       -1.7745064345
 C         6.9525823015        0.7353143785       -2.2870302529
 C         5.7859614998        2.9479516614       -2.0658684588
 C         4.1119737560       -1.5849594132       -1.9415563248
 C         2.6907678434       -2.0394755727       -2.2010573750
 C         2.5000461874       -3.3535727427       -3.0512261396
 C         2.9852193907       -4.6391124067       -2.0508389736
 C         1.8929960550       -5.4199201375       -1.2538255638
 C         1.0153536159       -3.3296760739       -3.4652024080
 C         3.3879829206       -3.4646078029       -4.2911240181
 O         1.6858825520       -1.4600581506       -1.8688368061
 O         4.1704585186       -4.8632106034       -1.9272723950
 C         2.3123957475       -5.9451770292        0.0679031578
 C         1.3995592575       -7.2024622532        0.4005058084
 C         1.6927036293       -8.0736097823        1.7216891580
 C         2.7947253741       -9.1160304941        1.2710644587
 C         2.2410238713      -10.5344459291        0.7313229277
 O         0.5967998504       -7.5984949424       -0.4129412138
 O         3.9810953089       -8.8964916002        1.2610929668
 C         2.4078509855       -7.2168980368        2.8206696482
 C         0.5063027604       -8.7245630433        2.3199277921
 H        -1.0796884542       -2.6565010220        5.1538357238
 H        -0.6099745051       -1.0136707136        4.6153722267
 H        -2.1702390639       -1.3274533448        5.4033793252
 H        -6.4429211645       -1.9604758680        4.4397398395
 H        -5.1553055913       -1.1045940626        5.3318424645
 H        -3.2434357068       -4.2731435414        2.2035135976
 H        -3.6570099228       -2.8686568980        1.0826169169
 H        -4.8229294855       -3.6218140507        1.8120397552
 H        -4.9428826798       -3.9220029156        4.4631487480
 H        -3.1503098484       -4.0839984391        4.8109647107
 H        -4.0285543490       -2.7915833876        5.5273421643
 H        -6.9316851455        0.2708275811        3.2630257871
 H        -7.4182830411        0.2226225314        4.9720978191
 H        -5.0110503067        5.3411060946        4.6904833760
 H        -4.0603734832        3.7179506761        4.8607003224
 H        -8.6104813767        2.0970729607        4.1873673987
 H        -7.9079719823        2.1027906982        2.6755048659
 H        -8.2943541004        3.6356519137        3.4518688505
 H        -5.7480501230        3.7065534427        6.2481584005
 H        -7.1649382426        4.4233137818        5.9191274409
 H        -7.1463174985        2.6654860824        6.5257950227
 H        -3.6512600510        6.1664075286        2.8417394459
 H        -3.7137264419        4.4174189472        2.3609567864
 H        -0.2318529206        1.9724007275        2.8659220315
 H        -1.7453755574        2.5971139360        3.4719291262
 H        -0.8553636867        6.5160006765        1.1801949941
 H         0.0130158965        7.1831705296        2.5664607716
 H        -1.7101259558        7.1230423568        2.6316273358
 H         0.8183789687        3.9244773230        3.9794600085
 H         1.4495065937        5.2844953332        2.9964063510
 H         0.6192896279        5.5349582047        4.4470042056
 H        -2.2445191768        0.6291699799        1.9880668781
 H        -3.1153117549        2.2187755472        1.5234648831
 H        -3.0957947302        2.2665368727       -3.6953597887
 H        -1.8465581111        3.1544205211       -2.8987848744
 H        -3.3720441098       -0.7918998484       -1.4837875356
 H        -4.1913885598        0.0898558223       -0.2622243109
 H        -2.6125375283       -0.6059752504        0.1394061532
 H        -3.1316322612        3.4586596097       -0.8681297421
 H        -4.2559319148        2.6734233518       -1.9689896120
 H        -4.3588209029        2.3674725048       -0.2305167162
 H        -1.5463310468        3.2433599018       -5.1144794616
 H        -1.6831864961        1.5423568720       -5.4873214295
 H         2.8284508762        0.3432168701       -5.0434595611
 H         4.0930064133        0.7551535513       -6.2530563998
 H         0.8546596878        0.1351295585       -7.7674227488
 H        -0.5617724006       -0.0862953461       -6.6632100771
 H         1.1717487885       -0.4907035615       -6.1926662634
 H         0.9604568374        2.9686565080       -8.0293181232
 H        -0.5236749775        1.9331297184       -8.0229829022
 H        -0.4065782988        3.4617139518       -7.1843027737
 H         4.7325960005        2.9084574003       -5.2340987123
 H         3.6744713770        2.5459024774       -3.8899636749
 H         5.2573435542       -0.4412397719       -0.5778370265
 H         3.4722418824       -0.5954045315       -0.2084281650
 H         7.7484120385        1.3330501903       -2.7097444556
 H         6.9681120596       -0.3050564169       -2.6634380648
 H         7.1787827511        0.7125806873       -1.2005063864
 H         4.7544967341        3.3784917516       -2.0952374317
 H         6.1579731172        3.0411510208       -1.0459846466
 H         6.4717999319        3.3973888174       -2.8118851002
 H         4.6578572326       -2.4497324432       -1.4793991511
 H         4.6396827493       -1.4245877263       -2.9112029959
 H         1.0063329806       -4.7956910927       -1.2204598878
 H         1.6631125354       -6.3981897196       -1.7862211782
 H         0.6659673508       -4.2415830469       -3.9981073877
 H         0.9146503552       -2.4710096656       -4.1688901135
 H         0.2593488136       -3.0311894160       -2.7056195141
 H         2.7385404237       -3.2911153463       -5.1551861736
 H         4.1693973845       -2.7168451575       -4.4439429009
 H         3.8957487678       -4.4484416801       -4.4412807315
 H         3.3711207389       -6.1384320518        0.1757157381
 H         2.0295627207       -5.1794806200        0.8189370925
 H         2.9693988540      -11.3206379524        0.9277081296
 H         1.2154362471      -10.7931964888        1.0531431920
 H         2.1433799882      -10.4108038784       -0.3878392449
 H         1.7765470078       -6.3088270049        2.9974359947
 H         3.4431332186       -7.0431129596        2.6459464009
 H         2.4824672972       -7.9160571020        3.6455204127
 H        -0.3460627139       -8.0408751979        2.6212726475
 H        -0.0287572480       -9.5558811386        1.7063793150
 H         0.7839027750       -9.2417806263        3.2822747003
 Na        1.0357979250        0.7970401630       -1.8898237798
