155

 C         1.4094001986       -7.6959301473       -1.5227019456
 C         2.4118731535       -8.1043105937       -0.4326243151
 C         3.2564359993       -6.9770038699        0.2359461986
 C         2.1483484823       -6.2493440565        1.2422470124
 C         1.6733561686       -6.8632433909        2.4926877409
 C         4.3633182183       -7.3825887303        1.2419802108
 C         3.6868731157       -5.9251608173       -0.7561681824
 O         2.4365809422       -9.2616999361       -0.0113861737
 O         1.6475325418       -5.2593893657        0.8055794699
 C         0.7450989414       -5.9284126795        3.3995026424
 C         1.4019546147       -4.5977886902        3.7049198831
 C         0.4445846649       -3.3786303598        3.3263663042
 C         1.1705103904       -2.0956250833        3.3462988422
 C         2.5035243186       -1.9370138224        2.6388393852
 O         2.5386684431       -4.5378640011        4.1298062335
 O         0.6150432788       -1.0980614933        3.8427604949
 C        -0.4740424521       -3.5687967344        2.1194283463
 C        -0.5588533659       -3.4575073602        4.6350821454
 C         3.2230029786       -0.4924771488        2.8114295776
 C         2.8119940476        0.4694489275        1.7103164024
 C         2.7001622416        1.9931790356        2.1453721299
 C         3.2092061797        3.1128958074        1.0282704838
 C         4.5819905170        3.8685988659        1.1313448004
 C         1.1167204839        2.0675003699        2.2505646583
 C         3.3567625513        2.3431244572        3.5114325347
 O         2.5556251408        0.2070622857        0.5229428675
 O         2.4546729301        3.5053931367        0.2060972432
 C         4.9173335615        4.5792695838       -0.1980562476
 C         5.4445334775        3.6748053960       -1.2377517805
 C         5.7365860828        4.2175399464       -2.6598179477
 C         5.0520090057        3.2822706564       -3.7304776325
 C         5.5700281900        1.8895827456       -3.7567703178
 O         5.7952027828        2.5553509049       -0.9284405073
 O         3.9486967956        3.6293819285       -4.1091725335
 C         5.1751003261        5.6221752489       -2.8600559629
 C         7.3812323298        4.2036427509       -2.8847932360
 C         4.7561929504        0.9057343983       -4.6084091499
 C         3.3039635738        0.7132816776       -3.9685038139
 C         2.1345230427        0.0204758826       -4.6396982092
 C         1.0171300775        1.0983169767       -4.9073340071
 C         1.3308581313        2.4192842301       -5.5434807162
 C         2.5699777755       -0.6158723622       -6.0052541425
 C         1.4506272384       -1.0698783144       -3.6752347847
 O         3.1841432708        1.1583914278       -2.8661419016
 O        -0.1344904427        0.8568295352       -4.5302991951
 C         0.2531026938        3.5005742800       -5.0149520971
 C         0.1406424296        3.3501973522       -3.5286862265
 C        -1.3181080836        3.5172068926       -2.6936293590
 C        -1.5598124614        2.0216842824       -2.1266933531
 C        -3.0672106585        1.3744638217       -2.2910526460
 O         1.2006598677        3.2281304338       -2.9879304940
 O        -0.6737794034        1.2873778133       -1.6982582576
 C        -1.0061350038        4.3749128358       -1.3648728246
 C        -2.5071989611        4.2316770164       -3.4131053427
 C        -4.1251994928        1.7102601989       -1.1881115373
 C        -4.0912144781        1.3086722829        0.2773324751
 C        -5.2729431007        1.8878744844        1.2500080285
 C        -6.5676928067        1.4313942004        0.6205611805
 C        -7.6290199045        0.7034284824        1.6163352337
 C        -5.0875123239        1.3551433271        2.6579178898
 C        -5.4047717020        3.4718495098        1.2380521264
 O        -3.3209235790        0.5611930900        0.8078598328
 O        -6.8704705201        1.6613859402       -0.5320981254
 C        -8.9334055595        0.3722249738        0.8988288051
 C        -9.5795838834       -0.8756858619        1.5944078676
 C       -10.6462298751       -0.7241509517        2.7258219814
 C        -9.8428808176       -0.1073280117        3.9261994175
 C        -9.4349567343       -1.0386275643        5.1263338720
 O        -9.1773007516       -1.9918365814        1.3653556525
 O        -9.6395358087        1.0874194018        4.0107087100
 C       -11.6838223955        0.3733820147        2.2456286582
 C       -11.5610244035       -1.9428134314        2.9533762882
 H         0.4568186324       -8.2741740128       -1.5453571332
 H         1.0823786042       -6.6949340038       -1.4594047166
 H         1.9199029850       -7.7043287783       -2.5341315463
 H         1.3313741418       -7.9033938356        2.4723612131
 H         2.5567693200       -7.1497587789        3.0905883193
 H         5.1449853389       -7.8869113324        0.7184490863
 H         3.7852457469       -8.0643204664        1.9048098096
 H         4.7207981763       -6.5226292383        1.9000983232
 H         2.9264035955       -5.1518516702       -0.7856454855
 H         4.5595615436       -5.3584223655       -0.4233528055
 H         3.8182495012       -6.3473140355       -1.7407562841
 H        -0.2875117948       -5.7728766947        3.1509689825
 H         0.7502948298       -6.3905261429        4.4664947968
 H         3.1402565709       -2.7701921607        2.9110234396
 H         2.2682890905       -1.9610862203        1.5661857173
 H        -1.4256386809       -3.0602330788        2.2738966227
 H        -0.8047894710       -4.6411921825        2.1789853643
 H        -0.0985115317       -3.4297903832        1.1807869958
 H        -1.4178031330       -4.0534303760        4.6253928008
 H         0.0919423187       -3.7509991337        5.4742294438
 H        -0.8858634392       -2.4237068956        4.8292923375
 H         4.2735118857       -0.6875611964        2.8757459942
 H         3.0338569354       -0.1622111209        3.8860581687
 H         4.6932835642        4.5450640485        1.9962887847
 H         5.3684053323        3.0831378107        1.3111000916
 H         0.7233996088        2.6499609805        3.0449492203
 H         0.6558409198        1.1028234490        2.4791008109
 H         0.6042658021        2.5451376489        1.3732394016
 H         2.7869449274        1.8877742449        4.2752711994
 H         4.3611158702        1.8869636225        3.5156837249
 H         3.6610319039        3.3730520942        3.7929659543
 H         4.0045255632        5.1766954877       -0.5311148337
 H         5.7041028994        5.3374801584       -0.2011842773
 H         6.6046088382        1.9510653186       -3.9237649693
 H         5.5265439553        1.5066737975       -2.7380031641
 H         5.5030882397        6.3689611560       -2.1531127574
 H         4.0654290260        5.5707268607       -2.8264435147
 H         5.4099721715        5.9627564082       -3.8092093569
 H         7.5742382450        4.5858818456       -3.9207573866
 H         7.9405649415        4.8667378039       -2.1512016496
 H         7.8618456954        3.2249558327       -2.7043363500
 H         5.3394845162       -0.0572983182       -4.5950721271
 H         4.7668225323        1.4223158446       -5.6006189469
 H         2.2735626676        2.8850359703       -5.2385116756
 H         1.4142307354        2.3233576300       -6.5920267330
 H         3.2009717444       -1.5434719544       -5.9331321213
 H         3.1209855246        0.1140962732       -6.4927959831
 H         1.6321416806       -0.8787682027       -6.4901538270
 H         1.8589850040       -1.0929546883       -2.6487877913
 H         0.4462234981       -0.6859555905       -3.4562377660
 H         1.3727705384       -1.9981778652       -4.1710050622
 H         0.7165596916        4.5088487235       -5.1245984234
 H        -0.7384002136        3.4177233486       -5.5386345833
 H        -3.4183424219        1.5786114007       -3.2769902245
 H        -2.8851889848        0.3206304906       -2.3006060903
 H         0.0049128482        4.1962849752       -0.9677531364
 H        -1.7569722494        4.0193787902       -0.5985569404
 H        -1.1588521355        5.4584188312       -1.4595180935
 H        -3.3304295357        4.1102736734       -2.8396208836
 H        -2.1243244853        5.2528231830       -3.6285363426
 H        -2.9306818699        3.6682191045       -4.2161891727
 H        -5.0833220340        1.4184613035       -1.5732788255
 H        -4.2265118024        2.7337392495       -1.2344190849
 H        -7.1290783197       -0.1717998086        1.9852739939
 H        -7.7537991654        1.3900701566        2.4211139720
 H        -4.0746493628        1.5453703085        2.9666139369
 H        -5.2059831485        0.2779353130        2.8291181881
 H        -5.8327950801        1.6615589505        3.3460549590
 H        -6.2037046843        3.6662836180        1.9786928300
 H        -4.5226167917        4.0364759450        1.6374201563
 H        -5.7681755465        3.8098103232        0.2175605590
 H        -9.5812844485        1.2670233637        0.8021073695
 H        -8.8417057367        0.0429194062       -0.1859681785
 H        -8.9524890329       -1.9585900322        4.9199889917
 H        -8.7608884410       -0.3957539043        5.7422675142
 H       -10.4005274940       -1.2623995523        5.6146601028
 H       -11.3188346067        1.2827869663        1.8525179439
 H       -12.3839279929        0.5813231265        3.0576858248
 H       -12.3229494004       -0.2024451519        1.5911127400
 H       -12.3051089644       -1.7469513353        3.7535398685
 H       -12.1424770279       -2.1162301893        2.0465972346
 H       -11.0008365939       -2.8452355860        3.0164082332
 Na        1.5303645778        1.4686690967       -1.1053625017
