155

 C        -3.0213602575       -0.5084411345        5.6710437771
 C        -2.6495867479       -1.0184882445        4.2774809699
 C        -3.4871489835       -2.2481008208        3.5844580253
 C        -4.7485515491       -1.5653504259        2.9224828986
 C        -5.9962917798       -1.3249384588        3.7955892100
 C        -2.6762168936       -2.9918423719        2.5457953011
 C        -3.8808569212       -3.2562178313        4.7439057277
 O        -1.7760477435       -0.5115701666        3.5959618693
 O        -4.6755306732       -1.3463919926        1.7065164687
 C        -6.8976972434       -0.1913808528        3.3195861178
 C        -6.7658634817        1.0612457631        4.2779736293
 C        -7.3409061127        2.4160149619        3.9295135243
 C        -6.1628338201        3.2086185205        3.2395096216
 C        -5.1029261676        3.9810592189        4.1964035704
 O        -6.1841683190        0.8649519960        5.3522134443
 O        -5.8418272597        3.0141881651        2.1093972124
 C        -8.5459958398        2.4377445630        3.0059780428
 C        -7.8204032324        3.0979009569        5.3070490355
 C        -3.9949964365        4.7051186914        3.4008485937
 C        -2.5867085473        4.9255880209        3.9491424652
 C        -1.4154961770        5.2682951028        2.8784855762
 C        -1.2375327051        4.1494654724        1.7773729270
 C        -0.6310104744        2.8061030782        2.1484008280
 C        -1.6408525957        6.6700443327        2.0988218797
 C        -0.1062055043        5.5106781307        3.6884587825
 O        -2.3786846216        4.8306648406        5.1386812105
 O        -1.6939606135        4.3719462852        0.6715356290
 C        -1.5096592063        1.6196237836        1.6286506360
 C        -1.1852094861        1.5276087493        0.1022510364
 C        -2.3047642862        1.1523133671       -0.8165460107
 C        -1.5958625055        1.2412810723       -2.2729491523
 C        -1.7162410044        2.4238062393       -3.0985453244
 O        -0.0371557729        1.6450192592       -0.3175964410
 O        -0.8595857612        0.3230041066       -2.6090922728
 C        -2.5695852011       -0.4794630229       -0.5514854419
 C        -3.5402225638        2.0282472435       -0.5901226894
 C        -1.1786715741        2.0221571339       -4.5245142251
 C         0.3758605982        2.2743333063       -4.7455599980
 C         0.9131289568        2.6012044877       -6.1329205083
 C         2.4447558652        2.8471770611       -6.2522811140
 C         3.3580596348        1.7768867215       -5.5594427081
 C         0.4477133303        1.4786912246       -7.1969279043
 C         0.1416016274        3.9328769296       -6.6112151702
 O         1.1955336305        2.4126866999       -3.8088699381
 O         2.9012012792        3.7093419058       -7.0012263801
 C         4.4698848773        2.4054178461       -4.6821628120
 C         4.9639054841        1.2833460161       -3.7810485085
 C         5.3699864603        1.5134371164       -2.2800769960
 C         4.1624152900        0.9607740098       -1.4921624281
 C         4.1051411263       -0.3636918545       -0.7695284064
 O         5.0248842406        0.1197838370       -4.1518915897
 O         3.1956988849        1.7161340070       -1.4015305181
 C         6.6420496631        0.6733915058       -1.8978801695
 C         5.4213999375        2.9834050391       -1.9001617691
 C         4.2863753863       -1.7388228104       -1.6175946472
 C         3.0839802160       -2.2119180956       -2.3710017123
 C         3.0867138796       -3.6569422149       -3.0286751251
 C         3.2915081461       -4.6449568180       -1.7184769472
 C         2.3971480560       -5.8299998858       -1.5709141043
 C         1.7484457309       -3.7607401587       -3.7092087174
 C         4.3807456282       -3.6776547433       -3.8692716739
 O         2.1758601038       -1.4663530710       -2.7424914565
 O         4.1854031148       -4.4907085224       -0.9057796330
 C         2.9886354944       -6.6563708026       -0.3445877605
 C         1.8925966040       -7.6490477249        0.1154117339
 C         2.2493736232       -8.8433444234        1.1417591695
 C         3.3436310538       -9.8104928705        0.5207945849
 C         3.0046016028      -11.2095000077        0.0661461429
 O         0.7328828455       -7.5035285165       -0.2709989356
 O         4.4643252480       -9.3263597361        0.4113122938
 C         2.8188205310       -8.1840112809        2.4125458440
 C         0.9889635998       -9.7201728134        1.2651464695
 H        -2.8586637011       -1.2024379411        6.4357180858
 H        -2.3796905243        0.3392708337        5.9069310916
 H        -4.0506461635       -0.1347204256        5.7257392557
 H        -6.5006782631       -2.2980899537        3.7865153684
 H        -5.8112149219       -1.0960991482        4.8203354733
 H        -1.6532391533       -3.2654639760        2.9120702047
 H        -2.3545343263       -2.2287544269        1.8304586584
 H        -3.1500832965       -3.8722606820        2.0248630390
 H        -4.6607948976       -3.8386626943        4.3407025716
 H        -3.0314324135       -3.9019249559        5.0614865934
 H        -4.2691165305       -2.7904984019        5.7012180886
 H        -6.6163707758        0.1536735442        2.3573668288
 H        -7.9517837874       -0.5238674698        3.2169285788
 H        -5.7231959770        4.3851569909        4.9900772077
 H        -4.6389711706        3.1139691540        4.8357906818
 H        -9.4528909648        2.0415535541        3.4415020503
 H        -8.5490855159        2.1554591730        2.0067702774
 H        -8.7859686653        3.5336363305        2.9276001120
 H        -7.1977873764        2.8731877161        6.1963981102
 H        -7.9282125352        4.1866022736        5.1262987177
 H        -8.9008978019        2.9851316780        5.4472160522
 H        -4.2093612538        5.7736175236        3.3907574416
 H        -3.8819421565        4.4489707872        2.3261727828
 H         0.2909126868        2.6702769014        1.6501841758
 H        -0.5750539236        2.8668592648        3.2340145615
 H        -1.1221610727        6.6851028782        1.1975608722
 H        -1.1091810295        7.4024713025        2.7320532587
 H        -2.6563163649        7.0224291374        1.9724527687
 H         0.1689824355        4.6510839529        4.2237525308
 H         0.6348751095        5.7944075395        2.9836134138
 H        -0.2433168610        6.4234741259        4.3016743978
 H        -1.3937098147        0.6789780962        2.1401103469
 H        -2.5567359873        1.8792798329        1.7168090465
 H        -2.6765512177        3.0179058593       -3.0323823754
 H        -0.9855786515        3.1697855782       -2.7307142118
 H        -3.5402565386       -0.7247573740       -0.1286241740
 H        -1.8331629147       -0.9414941642        0.0599468632
 H        -2.4720267958       -0.9089017386       -1.5095602009
 H        -3.3483367051        3.1388417139       -0.5933957666
 H        -4.1693890278        1.8048395870       -1.4143270784
 H        -3.9346015175        1.7326392019        0.3644848919
 H        -1.7967840786        2.5546915400       -5.2524550709
 H        -1.3590052741        0.9484220376       -4.6964039899
 H         2.7379952870        1.1186016944       -4.8691704031
 H         3.8045985009        1.1417349814       -6.2892125702
 H         0.7338596788        1.8445644597       -8.2102046753
 H        -0.5980058538        1.3616458147       -7.2774763922
 H         0.9734081243        0.6319945421       -6.8761632013
 H        -0.8930951972        3.8221289417       -6.2900778266
 H         0.6532488417        4.8458982844       -6.1617084407
 H         0.0783578892        3.9826184966       -7.7027565485
 H         5.2553498478        2.6235688354       -5.3664002430
 H         4.1771702012        3.3468317830       -4.1084454085
 H         4.9636705713       -0.4210354815       -0.0924711663
 H         3.2504645749       -0.3304326287       -0.0754245679
 H         6.6390279636        0.3317361716       -0.8782532981
 H         7.4980970256        1.3468735940       -1.9840422362
 H         6.8280830076       -0.0514791947       -2.6526508009
 H         4.3651573660        3.2883807606       -2.1022961006
 H         5.6148653951        3.0446192908       -0.7987979475
 H         6.1439574999        3.5523440194       -2.5278156873
 H         4.5735930542       -2.5266444604       -0.9362985146
 H         5.1003107602       -1.6286685940       -2.3221546517
 H         1.3183290837       -5.7865084809       -1.4704912699
 H         2.4712298431       -6.4076616593       -2.5380326037
 H         1.6008107934       -4.7035521983       -4.1675715003
 H         1.6591016373       -2.9272153581       -4.3923684647
 H         0.9436010825       -3.5891645669       -3.0005372193
 H         4.1174812036       -4.2627944020       -4.7421625331
 H         4.5299222025       -2.6990199307       -4.2039669934
 H         5.1860478468       -4.0782579419       -3.2780336370
 H         3.9098326614       -7.2740553896       -0.5595318751
 H         3.2577009968       -6.0351044193        0.4973588294
 H         3.8683861129      -11.7960182903       -0.3848978618
 H         2.7236863816      -11.8634778115        0.9344112401
 H         2.1672732514      -11.2319395113       -0.6925602899
 H         2.2250193059       -7.3653185458        2.7073859331
 H         3.8796896565       -7.9625044372        2.2650897298
 H         2.8527613151       -8.7960410332        3.2975110354
 H         0.1992461117       -8.9749677313        1.1872007089
 H         0.8966956113      -10.3756241539        0.4109270061
 H         0.9311679082      -10.2678473459        2.2227070614
 Na        1.2199721949        0.8514341212       -2.1095308194
