155

 C        -3.6370649984       -0.7293109172        6.7901002379
 C        -3.0430968764       -1.1048598961        5.4140131122
 C        -3.8386172294       -1.9962329739        4.3673336863
 C        -4.8334147701       -1.2897281215        3.4447340077
 C        -6.2284918082       -1.6494767877        3.3146257417
 C        -2.8906545125       -2.6340473325        3.3517744650
 C        -4.4181253633       -3.2359891574        5.1953212832
 O        -1.9698101643       -0.6830976885        5.0541002224
 O        -4.3231373572       -0.3885512990        2.7212634454
 C        -7.0546323630       -0.4157399369        2.8733338909
 C        -7.2888373380        0.6163136806        4.0111843334
 C        -7.8926921056        2.0148077630        3.5565342504
 C        -6.6309659965        2.7148771454        2.7797783093
 C        -5.6231721405        3.4483579033        3.5628413691
 O        -7.0201208028        0.4442305804        5.1892091853
 O        -6.4601928667        2.3333552056        1.6205801686
 C        -8.9410231170        1.6961509859        2.5940442725
 C        -8.4406239649        2.8823840648        4.6259666916
 C        -4.5060897021        3.8651744517        2.6463084597
 C        -3.2440275437        4.5088241226        3.3544647866
 C        -2.1079924728        5.3482015269        2.4202630900
 C        -1.3798136433        4.2805027295        1.4683733378
 C        -0.7783982630        3.0781210937        2.2084908303
 C        -2.6307856950        6.5761799219        1.6754411393
 C        -0.9611071860        5.7574450091        3.3758888454
 O        -3.1810953093        4.4090826451        4.5360323640
 O        -1.3316279175        4.5056331221        0.2670280325
 C        -1.3298679049        1.6415212357        1.7211421686
 C        -0.8771983640        1.3994183421        0.3226689814
 C        -2.1685208111        1.2028414591       -0.7687204371
 C        -1.5739293788        1.1713351291       -2.1912487965
 C        -1.7135204501        2.2696135087       -3.3429435470
 O         0.3155869839        1.2989065969        0.1267972820
 O        -0.7207771509        0.3362692744       -2.4474049796
 C        -2.7324022279       -0.2334185408       -0.5132398671
 C        -3.2353464282        2.3064696488       -0.6356773523
 C        -1.0603244614        1.8758061065       -4.6480317847
 C         0.4406127976        2.2398954918       -4.6201426717
 C         0.7565050526        3.2819416649       -5.7696245095
 C         2.3397271405        3.6392120565       -5.5788841029
 C         3.4542558713        2.4903154847       -5.6361498599
 C         0.5755429130        2.4952684488       -7.1061990599
 C         0.0523504928        4.6700532560       -5.8816624876
 O         1.3668864153        1.6419612528       -4.0626453878
 O         2.7083759026        4.7743082119       -5.5117169899
 C         4.5474130320        2.8963685419       -4.5739107683
 C         5.3740883051        1.6886239175       -3.9444854278
 C         5.8847585124        1.6367344241       -2.4042957353
 C         4.6761803384        1.1808471307       -1.5200711848
 C         4.6569352253       -0.1632454312       -0.6923589530
 O         5.4821241671        0.6141840208       -4.4898257055
 O         3.6698458832        1.8722971998       -1.5480318769
 C         7.1120527805        0.6396670184       -2.2934782421
 C         6.3819791884        3.0536833217       -1.9077259784
 C         4.7549166716       -1.4524921872       -1.5318906049
 C         3.3984578505       -1.8790811902       -2.0129785850
 C         3.3725904027       -3.4928662015       -2.5068789407
 C         3.3628271636       -4.4019967393       -1.1640270172
 C         2.4866787299       -5.6346163125       -1.2191655635
 C         2.2199006470       -3.8298214402       -3.4931073230
 C         4.6849624794       -3.7458735652       -3.3653547551
 O         2.3932054475       -1.1902265242       -1.9444251625
 O         4.1363090871       -4.0308604538       -0.2971606459
 C         3.0435187785       -6.7849770061       -0.2901231038
 C         2.2139761923       -8.0647298586       -0.3983959066
 C         2.5889063495       -9.3723834119        0.4911853671
 C         3.6655701631      -10.0960165649       -0.3751266317
 C         3.2851191053      -11.4210148123       -0.9659573968
 O         1.2970407367       -8.1933731993       -1.2080264579
 O         4.7042146080       -9.5619406577       -0.7564498514
 C         3.2048313975       -8.8104064969        1.8760607773
 C         1.2665024436      -10.2442071357        0.7537249624
 H        -3.7651860011       -1.5222141062        7.5257874970
 H        -3.0273972831        0.1039307663        7.1991311078
 H        -4.6882562004       -0.3517704940        6.6428553889
 H        -6.2661922244       -2.4692166609        2.6146869287
 H        -6.6387550338       -1.9533614763        4.2612303232
 H        -2.2117799519       -3.3735396591        3.9183084091
 H        -2.3225753167       -1.8699927210        2.8005220446
 H        -3.3949545338       -3.2111507139        2.5877452357
 H        -5.1117166051       -3.9235493752        4.6878950829
 H        -3.5739832941       -3.8505311518        5.4259326513
 H        -4.9569048065       -2.9329345894        6.1343345618
 H        -6.4414399222        0.1913336903        2.1336636747
 H        -7.9148842513       -0.6670055238        2.3185594187
 H        -6.0769323752        4.4582163394        3.9089275298
 H        -5.2107176980        2.7353728828        4.3743436161
 H        -9.6245035921        0.9042993333        2.9371351156
 H        -8.5883325333        1.3625041588        1.6107122238
 H        -9.5977824999        2.5296750299        2.4656302434
 H        -7.6461632899        3.0439120236        5.3608015505
 H        -8.7351774468        3.8929696756        4.2696345746
 H        -9.3132188704        2.4193468875        5.1706437722
 H        -4.8335839390        4.4762110699        1.7486645729
 H        -3.9547275741        3.0087362128        2.2608683579
 H         0.2991021597        3.0486137719        2.0825640477
 H        -0.8932337184        3.1545758700        3.2286991373
 H        -2.1081315960        6.6181712550        0.7125430634
 H        -2.4714117956        7.5831958244        2.1393988308
 H        -3.6674943855        6.4325227110        1.3996647370
 H        -0.7101965903        4.8869944827        3.9772058204
 H        -0.0963837961        6.0803232640        2.8671046960
 H        -1.3966732650        6.4969434204        4.0364290735
 H        -0.9976369739        0.8164936515        2.3197222635
 H        -2.3850286069        1.6906537378        1.7463243781
 H        -2.7910797346        2.4355052235       -3.5406886857
 H        -1.3222749112        3.2061791341       -2.8928897032
 H        -3.6963945668       -0.1444826767        0.0296913996
 H        -2.0744349641       -0.8326530935        0.1482799156
 H        -2.9238301033       -0.8163535463       -1.4317881242
 H        -2.7870001180        3.3224241421       -0.8829054971
 H        -4.0790337353        2.0481664745       -1.3138570811
 H        -3.6368784598        2.3191755009        0.3621524485
 H        -1.5571351151        2.3570801289       -5.4862774580
 H        -1.2158014172        0.7597599225       -4.7164344703
 H         3.1299238348        1.4244258371       -5.6092680942
 H         3.8712580379        2.6390377487       -6.6363314389
 H         0.6492211493        1.3658984751       -7.0493630654
 H         1.3032071674        2.8687443458       -7.8451636558
 H        -0.3229719719        2.7425487814       -7.5710425089
 H         0.4191898448        5.3155293720       -6.6685410746
 H        -1.0251460769        4.5531513898       -6.0225663543
 H         0.1467549023        5.2694245912       -4.9620778643
 H         5.1594623693        3.8070288891       -4.8266037933
 H         3.9481243120        3.2746799979       -3.7980676000
 H         5.5152991622       -0.1451792512       -0.0202224968
 H         3.6858799516       -0.0736966014       -0.1770296402
 H         7.3183409611        0.4785843865       -1.2326837114
 H         8.0204025721        1.1057343575       -2.7865134596
 H         6.9398541661       -0.3995611900       -2.6364716091
 H         5.4875741992        3.6735785039       -2.1082253962
 H         6.8236073389        3.0810541003       -0.9047442076
 H         7.1136012909        3.4797834753       -2.6197157333
 H         5.0183032385       -2.2742531710       -0.8531371589
 H         5.4872765588       -1.4325895649       -2.3407189074
 H         1.4760050985       -5.4147090366       -0.8840964363
 H         2.4281614541       -5.9427413488       -2.2582305458
 H         2.2641338447       -4.8657916363       -3.8793186821
 H         2.3462709379       -3.1592551040       -4.3648529379
 H         1.1703781606       -3.6872056699       -3.0824583329
 H         4.7646759877       -4.8000283889       -3.3147316017
 H         4.5913068139       -3.3877825310       -4.3377653387
 H         5.5154968334       -3.4140397850       -2.7352214233
 H         4.0672153002       -6.9653203253       -0.5991938595
 H         2.8793093805       -6.5208934131        0.7732656639
 H         2.4191865288      -11.1744482185       -1.6799992783
 H         4.0455003483      -11.8826338707       -1.6772165229
 H         2.9169562844      -12.2122956572       -0.2311119256
 H         2.5053582772       -8.3633782934        2.6089937212
 H         3.9348652287       -8.0498961392        1.8487878069
 H         3.5768916971       -9.6212714175        2.4631788489
 H         0.7825544883       -9.8344412813        1.6793128809
 H         0.5879816813      -10.1643294972       -0.1357972922
 H         1.6083248875      -11.3134229378        0.9227214031
 Na        1.6111726032        0.7981454466       -1.8972711099
