155

 C        -4.1439938033       -0.5313628713        6.6882538388
 C        -3.2011126757       -1.1157681528        5.6180188353
 C        -3.8179630884       -2.1612133479        4.5536680770
 C        -4.7398760686       -1.2283485957        3.7040433820
 C        -6.1863508114       -1.6633214636        3.4163320618
 C        -2.6094495067       -2.7400127731        3.7737072500
 C        -4.4146275704       -3.3203887268        5.2913284614
 O        -2.0566715946       -0.7471169337        5.5438564182
 O        -4.3780364856       -0.0834439277        3.3102139337
 C        -7.0937725293       -0.5786053869        2.8470005603
 C        -7.3594651907        0.5259884376        3.7949325370
 C        -7.8770745819        1.9049673804        3.2320549608
 C        -6.7873680384        2.5519283116        2.3460998059
 C        -5.6440048718        3.2425151184        3.1085814656
 O        -7.0390663119        0.4303839436        4.9759814999
 O        -6.7950176004        2.4156787105        1.1740297850
 C        -9.0753388837        1.8541804841        2.3382308490
 C        -8.1335866638        2.8291287603        4.5510118325
 C        -4.5580520003        3.8631525036        2.3087388873
 C        -3.5935419564        4.5316995019        3.2894399101
 C        -2.4150802424        5.2749746951        2.4980334496
 C        -1.6305577563        4.1299568280        1.6617804302
 C        -1.1169985971        2.9444470083        2.4344445147
 C        -2.9843486486        6.2885318730        1.4020668274
 C        -1.5167229360        6.1274440502        3.4442323457
 O        -3.7621105552        4.4427659916        4.4782506685
 O        -1.5520218126        4.1612941784        0.4613623074
 C        -1.7446741055        1.6200617800        1.7554277448
 C        -1.0465455970        1.4368329773        0.2937633195
 C        -2.1548524341        1.0378102837       -0.8293245922
 C        -1.4726438138        0.8346163322       -2.1400394394
 C        -1.7316249567        1.8245755764       -3.3782200846
 O         0.1300139896        1.3996601049        0.1345790267
 O        -0.7812879990       -0.1499773627       -2.4124711014
 C        -2.8326349968       -0.3214303232       -0.3184613920
 C        -3.2800850664        2.0780946133       -0.9135700549
 C        -0.8133020709        1.5713364270       -4.5879171296
 C         0.4413775215        2.3383138538       -4.4857095166
 C         0.9749858133        3.4350914436       -5.4867367184
 C         2.4092796192        3.8250810180       -5.1550970594
 C         3.4241054335        2.6925284289       -5.1890614098
 C         1.0525472478        2.9824057075       -6.9868490529
 C         0.1988286788        4.8637560399       -5.4559863221
 O         1.2287441232        2.0589515045       -3.5841885769
 O         2.6043680968        4.9948075401       -5.0584226929
 C         4.7377373760        3.0795571994       -4.4784189008
 C         5.5110627111        1.8681434660       -4.0772443178
 C         6.1918403621        1.7944566902       -2.4934996305
 C         5.0123145453        1.1349411680       -1.8020126984
 C         4.9845312542       -0.1452493200       -0.7800419250
 O         5.9237428965        1.0346367860       -4.8248997808
 O         3.9185669267        1.6478394918       -2.0052519296
 C         7.4402304477        1.0366990030       -2.5621171061
 C         6.3711721654        3.1926993639       -1.8482887904
 C         4.9866082236       -1.5577748346       -1.4581051445
 C         3.6076157443       -1.8935549147       -1.9541669235
 C         3.3136182268       -3.4392342986       -2.4087581435
 C         3.3302129438       -4.4047394274       -1.0542529269
 C         2.6276432263       -5.7209489999       -1.2402124997
 C         1.9868137697       -3.5201057277       -3.2013753589
 C         4.6198282354       -3.9069018969       -3.2163442872
 O         2.6786541977       -1.0860339712       -1.9576989602
 O         4.0697957702       -3.9968368102       -0.1626392521
 C         2.7834563035       -6.7802400358       -0.1392474429
 C         2.3301054774       -8.1569705597       -0.5714201558
 C         2.7613684207       -9.4150474914        0.2640774771
 C         3.7510599922      -10.1749558218       -0.8223356091
 C         3.3927294486      -11.3944819988       -1.6638193174
 O         1.5843594894       -8.3154536922       -1.5117379952
 O         4.7929339005       -9.6096198399       -0.8894546905
 C         3.4679360332       -9.0510099705        1.4956758807
 C         1.5385711325      -10.2786578320        0.6038534661
 H        -4.4158725244       -1.2372234680        7.4661601958
 H        -3.7472174781        0.3972655993        7.1984686482
 H        -5.1180709305       -0.1620535225        6.2357159335
 H        -6.2031225512       -2.5288559356        2.7571216857
 H        -6.5860896631       -2.0200075356        4.3588092145
 H        -1.8943631036       -3.2337675245        4.4592144410
 H        -1.9632656157       -2.0249458606        3.3356711537
 H        -2.9949156870       -3.4910750667        3.1210875856
 H        -4.8804123350       -3.9630596086        4.5868472350
 H        -3.7292444673       -3.8422942931        5.9105590875
 H        -5.1938996036       -3.0092480449        6.0233782556
 H        -6.4558391024       -0.1367490949        1.9744731099
 H        -7.9927251271       -1.0034731549        2.4510541221
 H        -6.0812702208        4.2099714704        3.4756504752
 H        -5.1234758840        2.4496839407        3.7260031674
 H        -9.9894424879        1.6287033129        2.9014713133
 H        -8.9442330269        1.2740420476        1.4583079658
 H        -9.3649523110        2.8673888066        2.0154599416
 H        -7.1730851474        2.9716676002        4.9569732572
 H        -8.5913120061        3.7364020066        4.3473247901
 H        -8.7903384702        2.4283695654        5.2693212722
 H        -4.8911833751        4.6987843182        1.6072977803
 H        -4.0575367411        3.1524964776        1.6714690558
 H        -0.0341297971        2.8842325131        2.2245089396
 H        -1.1310222198        2.9180410114        3.4923181304
 H        -2.4532329435        7.2271607446        1.5561669999
 H        -4.0764197751        6.5932661649        1.3812974895
 H        -2.6450279698        5.9758366973        0.4243814137
 H        -1.1514645760        5.3921113116        4.1535038188
 H        -0.6512171908        6.5704121790        2.9685403176
 H        -2.1481987799        6.9528482462        3.8611048077
 H        -1.3735749274        0.7446825596        2.3057236162
 H        -2.8232803861        1.7393347017        1.7095724447
 H        -2.7962253302        1.7190362779       -3.7534943086
 H        -1.6155511080        2.8969373880       -3.0658326114
 H        -2.7938741473       -0.5051125405        0.7913729644
 H        -2.5100461015       -1.1499600148       -0.9852879982
 H        -3.9346096306       -0.2667726670       -0.4620869435
 H        -2.9172036218        3.1071741413       -1.1794092138
 H        -4.0981303660        1.7401960602       -1.5308076990
 H        -3.6914975260        2.1753843362        0.0683503076
 H        -1.3735074769        1.8040511461       -5.4710216425
 H        -0.4111606689        0.5222999576       -4.6427933181
 H         2.9145232987        1.8176350550       -4.6333523170
 H         3.6389552809        2.3926910357       -6.2009299207
 H         1.8904126334        2.2660787772       -7.2477019096
 H         1.4628267763        3.8184250686       -7.5413678478
 H         0.2032691568        2.5372829837       -7.3984738122
 H         0.2557692714        5.3106573305       -4.5542970677
 H         0.5685728573        5.6101065972       -6.1268642861
 H        -0.8433888092        4.7983244847       -5.7591960557
 H         5.3561824187        3.8242705607       -5.0986505789
 H         4.4963596785        3.6572020795       -3.5831759865
 H         5.8323361172        0.0173679561       -0.0807455340
 H         4.0546013159        0.0532957046       -0.1602711071
 H         7.8815052124        0.8506170021       -1.5855217371
 H         8.2256817196        1.6006877158       -3.1526815506
 H         7.3745862090        0.0828710706       -3.0933489154
 H         5.3986532747        3.7081042152       -1.7373721283
 H         6.8432629455        3.1511731916       -0.8546662634
 H         6.9867749275        3.8266703999       -2.4841620756
 H         5.2209156450       -2.3936813874       -0.7816998413
 H         5.6158639439       -1.6397171110       -2.3540959076
 H         1.5735692578       -5.7142426930       -1.5301988290
 H         3.2045211569       -5.9736392922       -2.1941450183
 H         1.4521592711       -4.4538638510       -3.3367932532
 H         2.2174947570       -3.1542337954       -4.2113364541
 H         1.2759662470       -2.7406662119       -2.8417867841
 H         4.4235488770       -4.8695043158       -3.7398059393
 H         4.8492184838       -3.1668520671       -3.9504005313
 H         5.3478492681       -4.0548673512       -2.3922037029
 H         3.8459461255       -6.8009308541        0.1710370050
 H         2.1894642871       -6.5592425316        0.7859037894
 H         2.6867445467      -12.0716657891       -1.1500416647
 H         2.9172784618      -11.0945397701       -2.6170203743
 H         4.3039691130      -11.9403957659       -1.8373276085
 H         2.9468911557       -8.2473255204        2.0597690747
 H         4.4845861409       -8.7173065752        1.2317874297
 H         3.6385760628       -9.7102583311        2.3362393495
 H         0.9331451041       -9.6266697853        1.2713552982
 H         0.9557879109      -10.3505929936       -0.3810003429
 H         1.7113411347      -11.2606871222        1.1306533640
 Na        1.6219430003        0.7468750220       -1.6685984731
