155

 C        -5.1048133093        0.1811351444        6.7061878867
 C        -3.9070898948       -0.6406821414        6.2865283649
 C        -3.9291647386       -1.7694486488        5.1263251478
 C        -4.8254258124       -1.1157004620        3.9325756067
 C        -6.2590766253       -1.5512691520        3.7661692653
 C        -2.4676639055       -1.9368934439        4.6140613168
 C        -4.4087570216       -3.1212517409        5.6964025310
 O        -2.8911476232       -0.3980901449        6.8704826602
 O        -4.2718652960       -0.3150922856        3.2601000880
 C        -6.8950994565       -0.7885219794        2.5647834140
 C        -7.7154340239        0.3939609613        3.2076542136
 C        -8.5165581237        1.4604963962        2.3693502848
 C        -7.3749634504        2.2979031880        1.8028219911
 C        -6.8576613631        3.5639550678        2.6236817932
 O        -7.5091170655        0.6348163473        4.3567889087
 O        -6.8892406272        1.8812283861        0.7099262482
 C        -9.2808959375        0.6926556743        1.2361705377
 C        -9.4606773104        2.1335562926        3.4054649067
 C        -5.8228090791        4.2674399861        1.7601872995
 C        -4.5659895118        4.5649685406        2.5336300546
 C        -3.1768514272        5.0499387585        1.8445049088
 C        -2.7401796707        3.6268342346        1.2896393051
 C        -1.9905852468        2.6386370621        2.2172108792
 C        -3.3618346536        6.0875844621        0.6993624298
 C        -2.1576309089        5.5100440087        2.9470465969
 O        -4.4838224496        4.4244805775        3.7413920741
 O        -2.9934192153        3.2866992745        0.1115838645
 C        -2.0822552448        1.2140586036        1.6729884034
 C        -1.2878685822        0.9568331095        0.3909475256
 C        -1.6926940400       -0.1089654751       -0.7242967359
 C        -1.0338574802        0.3514049509       -2.0870866687
 C        -1.4056640434        1.7474858449       -2.6375862442
 O        -0.1707804116        1.4589865313        0.2916362150
 O        -0.2510607151       -0.4386580380       -2.7208171701
 C        -1.1176717507       -1.5149867075       -0.3481666352
 C        -3.1849951145       -0.1405843090       -0.9340622356
 C        -0.5089619230        2.1226509360       -3.8301656098
 C         0.8408514549        2.9287775613       -3.5929449044
 C         1.2118797249        4.1280983842       -4.4295810241
 C         2.6103746690        4.8074901102       -3.9280806896
 C         3.8653388108        3.9947364597       -4.0470846254
 C         1.1757251207        3.8181842652       -5.9821502056
 C         0.2765754969        5.2305075199       -4.1362357408
 O         1.7110291718        2.4088724483       -2.9225035222
 O         2.4967829815        5.9366168295       -3.5468171004
 C         4.6200574054        3.5730524333       -2.8100395123
 C         5.4876085716        2.3941754764       -3.3075287835
 C         6.3191486564        1.6121591306       -2.1540550303
 C         5.1834096969        0.8895038817       -1.2734505120
 C         5.5321550007       -0.4074577948       -0.5833520608
 O         5.7594743540        2.3226701831       -4.4873848709
 O         4.1001895590        1.4605315438       -1.1205478668
 C         7.2141639784        0.5197042413       -2.9054405441
 C         7.2348235126        2.6317141712       -1.4280965863
 C         5.2649121083       -1.5876023635       -1.5841028279
 C         3.7805715907       -1.9848393004       -1.7508489016
 C         3.5865696511       -3.2760427543       -2.6045291438
 C         3.6940969533       -4.3511576668       -1.5583789044
 C         3.0680162413       -5.7758972302       -1.7526775695
 C         2.1402195261       -3.1961999456       -3.1389656927
 C         4.8020925562       -3.5726087504       -3.5703178740
 O         2.8020157299       -1.4805565189       -1.2608908169
 O         4.2162979917       -4.2373234553       -0.4174492223
 C         3.7191894929       -6.8727234450       -0.8997978860
 C         2.8749698308       -8.1706758679       -1.0253248087
 C         3.6412774377       -9.4514952695       -0.7789737461
 C         4.4991247003       -9.7673854376       -2.0067384799
 C         3.8812740870       -9.5834672849       -3.3607238937
 O         1.7073709843       -7.9973040718       -1.3649514487
 O         5.6650961199       -9.8943127648       -1.9395285823
 C         4.6343673002       -9.3418205360        0.4051185991
 C         2.5383496860      -10.6302809015       -0.4418352925
 H        -6.1067254185       -0.1178856091        6.2352628152
 H        -5.0613934159        0.2447370949        7.7951043365
 H        -4.9692373695        1.2118255912        6.3471739956
 H        -6.3575082886       -2.6308522989        3.7379167543
 H        -6.8089483258       -1.1468249944        4.6047133072
 H        -1.8470046075       -2.2278632873        5.4076881174
 H        -2.0576766300       -1.0235438246        4.2163694865
 H        -2.5542046934       -2.7725373010        3.8994728902
 H        -4.4456186269       -3.7073873470        4.8239495724
 H        -3.7110862919       -3.5708693037        6.4305412945
 H        -5.3297153919       -3.1234824547        6.2103626870
 H        -6.1980800144       -0.5035573171        1.7482232549
 H        -7.4716534872       -1.5089467638        2.0550307728
 H        -7.6573340741        4.1162345241        2.9858957538
 H        -6.6118090990        3.1660515973        3.5956068824
 H        -9.9553199011       -0.0406128204        1.5649045957
 H        -8.3728604932        0.3455166993        0.6779504043
 H        -9.7402322577        1.4045130719        0.5937336558
 H        -8.8265169422        2.4974392069        4.1350527160
 H        -9.9980336624        2.8129817720        2.8350846529
 H       -10.2095474479        1.4900166956        3.7372536924
 H        -6.1604089319        5.2180201750        1.3348794256
 H        -5.8466473782        3.6123135953        0.8858835679
 H        -0.9866439231        2.9857342786        2.2003814937
 H        -2.4238916517        2.6461765227        3.2325509996
 H        -2.5958439196        5.9501161375       -0.0565118661
 H        -3.2786749245        7.0921949743        1.0196289813
 H        -4.3437032565        5.9232065581        0.2133527607
 H        -2.5566973865        5.4926319035        3.9723555075
 H        -1.3995107278        4.6669316279        3.0428782411
 H        -1.5291046134        6.3399459691        2.6703591207
 H        -1.9197871102        0.5373982991        2.4737501615
 H        -3.1079254974        0.9021043140        1.4228273180
 H        -2.5103345346        1.8121049004       -2.7095342346
 H        -1.1991717268        2.4453937431       -1.8121722279
 H        -1.9275958208       -2.0972836916        0.0474196493
 H        -0.3228345220       -1.3884960564        0.3980163950
 H        -0.5687746686       -2.0313734751       -1.1693796989
 H        -3.6447978406        0.7717744633       -1.1102875110
 H        -3.3389530734       -0.4920135976       -1.9627352356
 H        -3.8081802063       -0.8499842594       -0.3833051423
 H        -1.0758463140        2.7252914342       -4.5633636766
 H        -0.3013922956        1.1789292727       -4.4286871605
 H         3.5215576809        3.0923013819       -4.5237235562
 H         4.5333284675        4.4313745598       -4.7740317030
 H         1.7988140454        2.9729963859       -6.0860562182
 H         1.6622072905        4.6053315754       -6.5511272846
 H         0.1388683968        3.4844068051       -6.3361941843
 H         0.6886593473        5.8967106983       -3.2716730655
 H         0.1368803121        5.9253095227       -4.9562116047
 H        -0.6865930643        4.8102329279       -3.8721033613
 H         5.3370370685        4.2656677845       -2.4170308141
 H         3.9069654827        3.3606625917       -2.0542332758
 H         6.5511983891       -0.4703988965       -0.2209803064
 H         4.8907878094       -0.5671786292        0.2859058008
 H         7.7877757270       -0.1852097640       -2.2282476529
 H         7.9016030340        0.9876181279       -3.5807618462
 H         6.5897373272       -0.1278598676       -3.5571936195
 H         6.9824694377        3.3165464405       -0.6601393501
 H         8.0490992140        2.1141285232       -0.9606885547
 H         7.7669710370        3.2240720302       -2.1647415723
 H         5.8521969165       -2.4611706404       -1.2767713370
 H         5.5226485001       -1.3398735872       -2.6117969845
 H         2.1112034552       -5.7122131525       -1.3269840752
 H         2.9042016064       -5.9971164933       -2.8578765104
 H         1.4723974927       -3.2365261906       -2.2859248719
 H         1.8886965944       -4.0605329774       -3.7649754754
 H         2.0076195660       -2.3066593332       -3.7065557951
 H         4.6740872868       -4.3797759283       -4.2795911930
 H         4.8499142102       -2.7218993721       -4.3070029573
 H         5.7442995485       -3.7386220720       -3.0533155741
 H         4.7403042287       -7.0549337438       -1.2150722864
 H         3.6020443174       -6.4888390160        0.1238963452
 H         3.6107101923       -8.5279956204       -3.5200658974
 H         4.5378164586       -9.9964867915       -4.1258320542
 H         2.9545490267      -10.1474411274       -3.5406425574
 H         4.1311543253       -9.1085674252        1.3360272082
 H         5.4180810021       -8.5863772809        0.2344390786
 H         5.2039195748      -10.2813811772        0.5753138331
 H         2.0487233027      -10.3935162492        0.5455484434
 H         1.7220050383      -10.7005477750       -1.2468119268
 H         2.9538616145      -11.6624401679       -0.2308198721
 Na        1.7395389301        0.9625215538       -1.2401735456
