155

 C        -5.4639979072        0.5750745240        6.7160234808
 C        -4.1406765162       -0.0086806002        6.1868132050
 C        -4.2036466453       -1.4385443545        5.6499077153
 C        -4.8009269377       -1.3392502868        4.1852629070
 C        -6.2984670597       -1.6112430601        3.9271982015
 C        -2.6970823289       -1.8919144107        5.5763819326
 C        -4.9540700046       -2.5118676297        6.5654580411
 O        -3.2418706336        0.7556120642        5.9202146005
 O        -4.0979366412       -1.3389774506        3.1991522353
 C        -7.0494794219       -1.0237847284        2.6429296422
 C        -7.9563285533        0.2689475668        2.9631897797
 C        -8.7373620049        1.0438248533        1.8395858568
 C        -7.5232533633        2.0151421686        1.0999554205
 C        -7.4941564640        3.5288564017        1.2100583977
 O        -7.8842171413        0.6642714976        4.0660735403
 O        -6.8599269210        1.4751574530        0.2426940379
 C        -9.2917239193        0.0010566187        0.7137348930
 C        -9.9338834301        1.6998851387        2.3792789623
 C        -6.1659778288        4.3092369871        0.7449130278
 C        -4.8830083462        3.7678276456        1.5445810051
 C        -3.4741475422        4.3585769262        1.3182915583
 C        -2.5623291594        3.0416387957        1.0301579517
 C        -1.9195585393        2.1385172546        2.1779497780
 C        -3.4026277386        5.2767356734        0.0580997167
 C        -2.7339847670        5.1230654128        2.4143744845
 O        -4.9052463347        2.7816277637        2.2617043548
 O        -2.2122988692        2.7923860018       -0.1176085644
 C        -1.5108088759        0.7628040823        1.6195897148
 C        -0.7220910563        0.9103748872        0.2999260545
 C        -1.2343296593        0.1084870574       -0.9846639145
 C        -0.5826236271        0.7199431570       -2.2847661288
 C        -1.4331443042        1.6034240779       -3.2047130319
 O         0.3343601389        1.6221089243        0.3121553931
 O         0.6251154917        0.5500779127       -2.5548257397
 C        -0.5668607216       -1.3165895901       -0.7344407556
 C        -2.7778911896       -0.0457274451       -1.0783095194
 C        -0.7555963034        2.7914807408       -3.9682849178
 C         0.1212777543        3.5888608594       -2.9573388547
 C         0.7119292451        4.8937928257       -3.4184814046
 C         2.3542018101        4.9627196208       -3.1252616699
 C         3.0046385641        3.5554216428       -2.9626451058
 C         0.4949377459        4.9845856160       -4.9880623808
 C         0.0148606727        5.9577356542       -2.5579242324
 O         0.3379139745        3.2541706432       -1.8213421558
 O         2.8976435269        6.0455578007       -3.2020445086
 C         4.0392549557        3.5953630771       -1.7796320109
 C         5.0768853465        2.3985445449       -2.0119471544
 C         6.0699345234        2.0015542456       -0.8916826267
 C         5.1733496804        0.9444683073       -0.2479324413
 C         5.3739253707       -0.5263985774       -0.2920710957
 O         5.0211809491        1.8473466893       -3.1038267022
 O         4.1191013366        1.3317457679        0.1452847577
 C         7.5608535882        1.6354407560       -1.4407667498
 C         6.1657782878        3.1754656314        0.1456381036
 C         5.0603209611       -1.1029999611       -1.6982172075
 C         3.7901530660       -1.9778120218       -1.6331157058
 C         3.6337234825       -3.2039343125       -2.4710745024
 C         4.2670367412       -4.3432273665       -1.6276122243
 C         3.6239022720       -5.7224184636       -1.4232396833
 C         2.1431458489       -3.4896470325       -2.9336579443
 C         4.5978854717       -3.0975951833       -3.6182547613
 O         2.9178829063       -1.6394007102       -0.8521899076
 O         5.3297858259       -4.0599314534       -1.1417554312
 C         4.4930108734       -6.9251334865       -1.3751203679
 C         3.5971351848       -8.2223975447       -1.5117729648
 C         4.1831661864       -9.6030756017       -1.7279599958
 C         4.9479799971       -9.6258323722       -3.2313087881
 C         4.7945805152      -10.9570724540       -3.9786974867
 O         2.3547402305       -8.1166104181       -1.5546135865
 O         5.7800284476       -8.7912716251       -3.5608306608
 C         5.2629761160       -9.9554847221       -0.6467347307
 C         3.0476847270      -10.6196540096       -1.7166209589
 H        -5.5904794184        1.5930317576        6.3447939536
 H        -6.2938642387       -0.0010181197        6.4855746102
 H        -5.4054773621        0.5320537766        7.7586639003
 H        -6.3488388688       -2.7142464123        3.9217971760
 H        -6.9450970278       -1.2413052979        4.7180273554
 H        -2.3284019152       -2.0521873537        6.5579807476
 H        -2.1408379146       -1.1196908993        5.0138804074
 H        -2.5950044941       -2.8892670716        5.0175304887
 H        -5.3443258073       -3.2439179327        5.9260684784
 H        -4.2340450800       -2.9323656599        7.3135550794
 H        -5.7070251245       -2.0442395109        7.2283330016
 H        -6.4715992641       -0.8109953653        1.7580752036
 H        -7.7001919247       -1.8291471514        2.2643112875
 H        -8.2700937319        3.8836836797        0.5167006540
 H        -7.6221631095        3.8512131264        2.2130375442
 H        -9.0965249132       -0.9654983157        1.1142043556
 H        -8.7335831711        0.1608975940       -0.2744142601
 H       -10.3785319252        0.2369299582        0.6557035113
 H        -9.6119032838        2.5310232351        3.0229165203
 H       -10.5853495278        2.0776671965        1.5707104876
 H       -10.6315772203        0.9271541742        2.7711465206
 H        -6.3625052184        5.4331925604        0.9171285599
 H        -6.1104905267        4.1441326633       -0.3227159452
 H        -1.1963531370        2.7046371244        2.7678406779
 H        -2.7866865956        2.0743381546        2.8022506776
 H        -2.3818009734        5.6147158614       -0.0470427694
 H        -4.0044663722        6.1798463329        0.2530446806
 H        -3.7194078143        4.7381956250       -0.8663932399
 H        -3.1929828952        6.0544762670        2.6532666942
 H        -2.7964723121        4.5300822683        3.3408957835
 H        -1.7036729461        5.2007194256        2.0674322221
 H        -0.8474586927        0.2974206129        2.3126421887
 H        -2.3676452309        0.1059222957        1.4659705915
 H        -2.0618924631        1.0518413795       -3.9573410898
 H        -2.1603878202        2.0972813733       -2.5212727972
 H        -1.4005038709       -1.9496540901       -0.4699239969
 H         0.2159301665       -1.3232111102        0.0373966181
 H        -0.1395720147       -1.7610502799       -1.6558981847
 H        -3.3417853889        0.8557098646       -1.3192259717
 H        -2.9102243484       -0.6717059427       -1.9578454334
 H        -3.2445168393       -0.6499756792       -0.2777029551
 H        -1.5331090348        3.3934811297       -4.4568497265
 H         0.0083435161        2.5125926743       -4.7517461681
 H         2.2078197169        2.7314557993       -2.8668660981
 H         3.4888280737        3.4296028947       -3.8905905895
 H         0.7270744801        4.0426790964       -5.4234831556
 H         1.2954080213        5.6247369243       -5.3035904188
 H        -0.5583660156        5.2173641994       -5.3292059272
 H        -1.0692763080        5.8982869573       -2.7355533431
 H         0.4186726044        5.7590797025       -1.5960341541
 H         0.2946300011        6.9092823526       -2.8794371041
 H         4.6287605278        4.5338028858       -1.8097048039
 H         3.4933529824        3.5215014553       -0.8598692075
 H         6.4043149354       -0.7905922005        0.0158078483
 H         4.6283681057       -1.0138737905        0.4099075782
 H         8.0824032036        1.1514267015       -0.6204575918
 H         7.9889344339        2.4534846739       -1.9089294975
 H         7.3868130965        0.8416203003       -2.1117707785
 H         5.3015776311        3.6501885257        0.5576191294
 H         6.7469475020        2.7849465622        0.9506170465
 H         6.6366650937        4.0610881329       -0.2982902689
 H         5.8768246062       -1.7086784737       -2.0984524081
 H         4.9156965953       -0.2707960293       -2.4191770476
 H         3.1445545716       -5.5759443653       -0.4181107185
 H         2.7649529172       -5.7967060698       -2.0805870756
 H         1.6209575050       -3.8054933905       -2.0400748878
 H         2.1123892645       -4.3275550738       -3.6738033631
 H         1.8435610493       -2.6184278824       -3.4663456102
 H         4.4687410510       -3.6137972457       -4.5628036853
 H         4.6540439257       -2.0630402133       -4.0651838280
 H         5.6164416407       -3.3160096741       -3.3296000305
 H         5.2852595973       -7.0684320558       -2.1686283285
 H         5.1051017240       -6.9201394644       -0.4930929851
 H         4.3075212427      -11.7992988732       -3.6234806974
 H         4.3990033967      -10.9186824242       -4.9529007363
 H         5.8313511650      -11.2176992073       -4.1163908270
 H         4.7289952990      -10.2250264168        0.2512328677
 H         6.0057970685       -9.1389279763       -0.4710690728
 H         5.6428962621      -10.9541803926       -1.0018205545
 H         2.4419193686      -10.4198106333       -0.9023583476
 H         2.4355580742      -10.5464332832       -2.5597977336
 H         3.4098020327      -11.5897014835       -1.6534064260
 Na        2.1856797291        0.6056467580       -0.9503495266
