155

 C        -5.6841218325        1.6850545697        5.7372273874
 C        -4.4101512761        0.7669629530        5.4458867656
 C        -4.4553327446       -0.8222966221        5.5645620629
 C        -5.1413918669       -1.4185380563        4.2382417513
 C        -6.6010170502       -1.0175744725        3.9113240845
 C        -3.0262074336       -1.3893443179        5.7288994730
 C        -5.2245149763       -1.2078156665        6.8271957377
 O        -3.3031557457        1.2333270811        5.1877000065
 O        -4.5201144722       -2.1282411871        3.4773635570
 C        -6.7346059952       -0.1621076729        2.7130828364
 C        -8.1617259442        0.2162428559        2.4264488804
 C        -8.6269285948        0.4868409582        0.9610870875
 C        -7.5364870212        1.3339279170        0.3941838515
 C        -7.7745967606        2.8203552844        0.7904052108
 O        -8.9484128725        0.2320578324        3.4108518030
 O        -6.4768175927        0.9681686928       -0.1168690381
 C        -8.5894045320       -0.9440067695        0.2668391650
 C       -10.0523480735        1.0130074836        0.7288390813
 C        -6.5516707187        3.7478560731        0.4449138220
 C        -5.5934677704        3.4801357497        1.6023486724
 C        -4.0682946497        3.7762568274        1.4670329425
 C        -3.4377447414        2.4314704022        1.0100725427
 C        -3.1063483931        1.3406820275        1.9656421416
 C        -3.7628383845        4.9963297862        0.5688424977
 C        -3.4627896661        4.0739443961        2.8870438652
 O        -5.9488462623        2.9986318398        2.6688446457
 O        -3.0757546454        2.2192068759       -0.1613562641
 C        -2.7931355777       -0.0828333948        1.2488895666
 C        -1.4868270023       -0.1730089933        0.6229480212
 C        -1.3420638397       -0.3580275520       -0.8356751811
 C        -0.3128338760        0.7382158030       -1.4263584498
 C        -0.6637947881        1.5752031698       -2.6005902416
 O        -0.5446739246       -0.2660201474        1.3999665945
 O         0.7932544768        0.9008473105       -0.9757377693
 C        -0.5646863661       -1.6408301313       -0.9852813243
 C        -2.6038209147       -0.4869534110       -1.6792517817
 C         0.4122322240        2.6820329173       -2.9892775779
 C         0.2931454285        4.0612261942       -2.2717964542
 C         1.1014401206        5.2596057022       -2.8395588030
 C         2.7039585421        5.1468607984       -2.7180874215
 C         3.3041383770        4.0123888041       -1.7076010012
 C         0.7677750296        5.3256825882       -4.3543060087
 C         0.6078710231        6.5841231208       -2.1493450676
 O        -0.3295317203        4.0760254908       -1.1943683544
 O         3.4027646831        5.9139645007       -3.2830885394
 C         4.8197864406        3.7478205856       -1.8816388821
 C         5.1899013696        2.3349670360       -1.4756484524
 C         5.4704264963        1.9000636540       -0.0491583519
 C         4.3830053618        0.6863041181        0.4795925931
 C         4.8611294322       -0.7407978336        0.5259331330
 O         5.3723103003        1.4916422001       -2.3355107916
 O         3.2023254629        0.9749960509        0.6527029123
 C         6.9090804616        1.3135910323        0.0982953723
 C         5.4887043203        3.1557392119        1.0020207628
 C         4.9936060522       -1.3177510199       -0.8955012301
 C         3.8190632746       -1.7749610410       -1.6325591201
 C         4.1072938982       -2.5854116859       -2.9823990396
 C         4.7723447268       -3.9284024882       -2.5966088730
 C         4.2312092736       -5.1708391917       -3.2080762494
 C         2.7727097379       -2.7331561332       -3.7044749032
 C         5.1116211985       -1.5905257841       -3.6991015373
 O         2.7082372346       -1.8144086017       -1.1068053592
 O         5.7955067268       -3.8225192380       -1.9288370763
 C         5.3125710020       -6.3516592398       -3.1553149950
 C         4.6949220849       -7.5358655832       -2.4517664401
 C         5.3043672809       -9.0339174970       -2.5065967245
 C         5.5667282837       -9.3124165949       -4.0448296257
 C         6.8574180136      -10.2201031929       -4.4408837794
 O         3.7137141740       -7.3484155452       -1.7173775303
 O         4.8577276321       -8.8330665578       -4.8982175960
 C         6.6132700647       -8.9826127283       -1.5302531436
 C         4.3546316225      -10.1439067717       -1.9904380109
 H        -5.7525071962        2.5282381115        5.1019017887
 H        -6.5729585428        1.1031554408        5.7474091201
 H        -5.6463626563        1.9718559870        6.7774024363
 H        -6.9387147726       -2.0381945335        3.7822028062
 H        -7.0946953410       -0.5195093682        4.7279535336
 H        -2.5911943466       -1.2403457130        6.7717218491
 H        -2.4011543826       -1.0493268769        4.9029756086
 H        -3.0537582000       -2.4471015231        5.6759251423
 H        -5.4480997653       -2.3295712271        6.7458203646
 H        -4.6922957776       -1.0345815572        7.7548937749
 H        -6.1662043801       -0.6929295905        6.9958760578
 H        -6.1461904244        0.7671211163        2.8842978269
 H        -6.3248078883       -0.7029576579        1.9197684795
 H        -8.7325166503        3.2391129248        0.4178067763
 H        -8.0005471707        2.9625701308        1.8642835243
 H        -9.4541869354       -0.9396195469       -0.4972287183
 H        -8.6931443467       -1.8352857717        0.8679642671
 H        -7.7545132106       -1.1044686592       -0.3967217294
 H       -10.3994199449        1.9146334508        1.3058069396
 H       -10.3016835239        1.1956649128       -0.3195001339
 H       -10.7740834144        0.2206086163        0.9277897703
 H        -6.8821490488        4.7613064187        0.4095157937
 H        -5.9489654339        3.5776026849       -0.3973306454
 H        -2.1257936521        1.6046884747        2.4052403395
 H        -3.7706355115        1.1360991771        2.8381017530
 H        -2.7043949411        5.3433977034        0.7176723810
 H        -4.3643392703        5.8275741833        0.9397253832
 H        -3.9046320936        4.9656947738       -0.5288867332
 H        -3.8057256027        5.0439747163        3.2687917598
 H        -3.8739347371        3.3563723296        3.5349855804
 H        -2.4066011449        4.0401176201        2.8707755498
 H        -2.7872833352       -0.8621176488        2.0563308374
 H        -3.5590850056       -0.3020447943        0.4845241788
 H        -0.8474407098        0.9037716362       -3.4207799198
 H        -1.6251269216        2.0299006958       -2.3536667963
 H        -0.2258745768       -2.0109595442       -0.0013142950
 H         0.3736676326       -1.5353213619       -1.5646388109
 H        -1.1324431751       -2.4433652550       -1.4796017521
 H        -3.1958836473        0.4470440317       -1.5082859754
 H        -2.2662499366       -0.6863525996       -2.7069001871
 H        -3.1254090176       -1.3985922242       -1.3992430563
 H         0.4312903172        2.9891023665       -4.0325434696
 H         1.3877377453        2.1643628051       -2.7014294879
 H         3.1552129128        4.4712822557       -0.7091357423
 H         2.6694660629        3.1579745077       -1.8199061715
 H         1.0794276572        4.5572172107       -5.0900941234
 H         1.1362815039        6.2664840192       -4.8036974387
 H        -0.3016195856        5.3292368563       -4.4850411570
 H        -0.3454734763        6.8137500490       -2.6061702533
 H         0.6109706011        6.4010985420       -1.1012957108
 H         1.2287919691        7.4556089873       -2.3304958070
 H         5.1499616395        3.8918150233       -2.9360999405
 H         5.4619483898        4.4222181599       -1.3058948009
 H         5.7925120570       -0.8782428738        1.0589983164
 H         4.1074719079       -1.1931721315        1.1590575063
 H         7.0251869966        1.0436141873        1.1048185738
 H         7.5139273090        2.1376551620       -0.2473271281
 H         7.0760369010        0.4389369142       -0.4917895091
 H         4.4829220875        3.5985675801        1.0436355346
 H         5.8263967220        2.7413057929        1.9409475814
 H         6.0887738539        3.9627615980        0.6405847955
 H         5.6126017387       -2.2366746034       -0.8674142293
 H         5.5398276839       -0.6721517461       -1.5986831433
 H         3.3717264575       -5.5134654538       -2.5978623151
 H         3.9062285472       -4.9450493686       -4.2332433662
 H         2.2308895422       -3.5842938146       -3.2707159887
 H         2.9175454109       -3.0423312499       -4.7235517629
 H         2.1966756775       -1.8134189651       -3.8638143721
 H         5.1992541429       -1.7948556908       -4.8231229908
 H         4.8998310158       -0.5225734984       -3.5683718387
 H         6.1227384020       -1.8756211414       -3.3778100432
 H         5.7874513431       -6.6780967917       -4.0945560808
 H         6.0157588879       -5.8535329744       -2.5387801528
 H         7.8732247059       -9.8549824626       -4.2909607628
 H         6.8702623912      -11.2302814826       -4.1059750752
 H         6.8308092051      -10.2171915798       -5.4918566108
 H         6.2415170387       -8.5625394208       -0.5612370856
 H         7.2471559015       -8.2445981721       -2.0049590887
 H         7.0052027895      -10.0073571624       -1.3955247462
 H         3.8881965354       -9.7616501892       -1.1527051992
 H         3.5944973293      -10.2945864134       -2.6917807111
 H         4.8230805379      -11.0427463329       -1.8346094662
 Na        1.5893112159       -0.6580766877        0.5822573279
