155

 C        -5.5222927224        1.7780418210        5.9988206665
 C        -4.4143066406        0.8460642658        5.5411641195
 C        -4.5548413503       -0.7225801399        5.6557137847
 C        -5.2419478726       -1.2654250765        4.3302638501
 C        -6.7989893141       -1.1671566003        4.1002501215
 C        -3.1350454418       -1.3844366044        5.6123050972
 C        -5.5423557114       -1.1032312750        6.8709187144
 O        -3.3838069858        1.3179861142        5.0733090590
 O        -4.6004586585       -1.8273415051        3.4625878567
 C        -6.8551109618       -0.4222199239        2.7053159798
 C        -8.3118262310       -0.0534620216        2.3164469934
 C        -8.6570553664        0.2469465737        0.7928711852
 C        -7.5403620078        1.3702146033        0.3785021393
 C        -7.6844811246        2.8523223996        0.2500541975
 O        -9.1228171818        0.2367318742        3.1411342107
 O        -6.4608119848        0.8676984277        0.0390135832
 C        -8.4147363394       -1.0903972893        0.0988685649
 C       -10.0926668382        0.7806816309        0.8702869461
 C        -6.4576619197        3.7184649218        0.5842685978
 C        -5.5047135396        3.3049477865        1.7813383400
 C        -3.9207180271        3.7380408936        1.6240130518
 C        -3.5091305322        2.4594142023        0.8825719587
 C        -3.1545124514        1.3375063783        1.7562146255
 C        -3.6823730747        4.9543219005        0.7965753865
 C        -3.3579445455        4.0139445521        3.0169985234
 O        -5.8991602639        2.7557532573        2.7785039205
 O        -3.3757899719        2.4889907702       -0.3379673444
 C        -2.8870737465       -0.0586659747        1.1449485893
 C        -1.5244735899       -0.2080978625        0.4678779337
 C        -1.3117170994       -0.5261391228       -1.0028976690
 C        -0.3119714387        0.5522217580       -1.5705227819
 C        -0.8003345460        1.7063923932       -2.5340407264
 O        -0.6012877073       -0.1423722610        1.2641332479
 O         0.7424947866        0.7541794848       -1.0511593828
 C        -0.6957463150       -1.8874202007       -1.1988762786
 C        -2.6670204187       -0.3767500976       -1.7881000444
 C         0.2438300407        2.7272089222       -3.0576633459
 C         0.3353994855        4.0322000371       -2.1982882304
 C         1.1251980188        5.2256607932       -2.8390578605
 C         2.7322725310        5.0948676812       -2.6910571212
 C         3.3349808645        4.0938876096       -1.5675178747
 C         0.8357180886        5.4443452857       -4.3142500789
 C         0.6589657681        6.4552293204       -2.0640419587
 O        -0.1945507897        4.0459095237       -1.1394423769
 O         3.3633696278        5.8874731567       -3.3597661540
 C         4.7758731805        3.6798659790       -1.7746492862
 C         5.1934731488        2.3053565239       -1.2742757789
 C         5.5078677367        1.9353733457        0.2076881907
 C         4.4687298326        0.7292369865        0.5701623316
 C         4.7714031228       -0.8140263143        0.7488368395
 O         5.3026643233        1.4787757745       -2.1468238426
 O         3.3446413029        1.0737313437        0.7640285724
 C         7.0600437852        1.3899480940        0.2994627814
 C         5.1235936372        2.9628802828        1.2122413526
 C         4.9409704050       -1.4992904510       -0.5994878956
 C         3.7882477137       -1.8416253583       -1.5641158942
 C         4.1492799921       -2.4941591831       -2.9568770512
 C         4.9343058355       -3.8801032386       -2.7747201264
 C         4.4582244610       -5.1102184295       -3.6329638453
 C         2.7949800966       -2.6448075797       -3.7346789524
 C         4.9392843060       -1.4245405698       -3.7670199241
 O         2.6878222988       -1.6499828176       -1.1213742977
 O         5.8819953686       -3.9244405779       -1.9673387911
 C         5.2818810588       -6.3672624769       -3.4441834723
 C         4.7381408443       -7.4664295432       -2.4213480197
 C         5.4804675733       -8.8404906114       -2.5851593327
 C         5.7768685394       -9.2395621196       -4.1167474536
 C         6.8779682469      -10.1244582207       -4.4696282130
 O         3.9642291763       -7.2926994665       -1.5591428617
 O         4.9728578427       -8.8018004192       -4.9450408490
 C         6.7969236233       -8.8985071485       -1.7994046437
 C         4.4607768382       -9.9200245457       -2.0990035782
 H        -5.7305467009        2.4503132496        5.1292225177
 H        -6.4811968899        1.3112236711        6.3628427239
 H        -5.2513226296        2.3361944546        6.8958747126
 H        -7.2860656451       -2.1659111797        4.0510948849
 H        -7.1869224546       -0.4367163176        4.8289897919
 H        -2.5151483449       -1.1377373992        6.4225655246
 H        -2.6528245973       -1.0717864846        4.6832142727
 H        -3.1808141959       -2.5117917166        5.6550654809
 H        -5.4492998552       -2.0873627969        7.1994251422
 H        -5.3325282749       -0.4573615931        7.7682686822
 H        -6.6042425021       -0.8779268987        6.6463729475
 H        -6.3600429392        0.5481146595        2.7560334249
 H        -6.2937326556       -1.0291689415        1.9126028993
 H        -7.9757344518        3.1853217070       -0.7551078084
 H        -8.5810277291        3.1168337086        0.8155307767
 H        -9.0251636651       -1.3662468863       -0.6995915470
 H        -8.5154104883       -1.9361886276        0.8254968754
 H        -7.3768658261       -1.1819072911       -0.2713281149
 H       -10.1559085328        1.4699697889        1.6961146964
 H       -10.3686977422        1.1897911029       -0.1020812464
 H       -10.9333740173        0.1564257387        1.1298436145
 H        -6.7932753550        4.7539793301        0.9201583626
 H        -5.7861976797        3.8733919689       -0.3145971016
 H        -2.3236486673        1.5188741506        2.4679959842
 H        -3.9528427543        1.1276060544        2.4693425578
 H        -2.6290604508        5.0577194873        0.6388342368
 H        -4.0463881250        5.9349081931        1.1003237676
 H        -4.0747087381        4.7480842382       -0.2035928906
 H        -3.6748955523        4.9896191023        3.3493730397
 H        -3.6138635299        3.2126563207        3.7718237258
 H        -2.2532362561        4.0180731225        2.8734570197
 H        -2.7677007844       -0.5939401487        2.0769197972
 H        -3.7520249603       -0.4479882714        0.5993527575
 H        -1.2935164414        1.2654920010       -3.4284902295
 H        -1.6134525349        2.2278285583       -2.0069651595
 H        -0.6782873497       -2.5019023943       -0.3195237037
 H         0.3112699813       -1.7721679746       -1.5382333738
 H        -1.2244435543       -2.4332529849       -1.9672563841
 H        -3.1320362651        0.5167442052       -1.4238910059
 H        -2.4129369858       -0.2012419155       -2.8358978225
 H        -3.1668883364       -1.3583325747       -1.7605625367
 H         0.0025639023        3.0921959799       -4.0470382322
 H         1.1390873757        2.2025297304       -3.1283361262
 H         3.2343325616        4.7189789105       -0.6856509765
 H         2.6073658663        3.2482336610       -1.5432282926
 H         1.1402396412        4.5589462689       -4.8356969269
 H         1.4122703575        6.2242999715       -4.7874054199
 H        -0.2261878426        5.4927986306       -4.6736058414
 H        -0.1949186588        6.8808616815       -2.5635269305
 H         0.5921424116        6.1949418052       -0.9664989642
 H         1.4207608247        7.2641882628       -2.1011404697
 H         4.9560277637        3.6284516788       -2.8795115618
 H         5.5189281177        4.3795537132       -1.3530194246
 H         5.7906915400       -0.9623769331        1.1583168878
 H         4.1389863320       -1.1206655262        1.5955425645
 H         7.2004665392        0.8134590536        1.2805542747
 H         7.7207292637        2.2486010489        0.2222056946
 H         7.1412420097        0.5779903188       -0.4581642639
 H         4.1345960479        3.2454483495        0.9923570457
 H         5.2729047841        2.5885123516        2.1966943420
 H         5.8040143213        3.7982092782        1.0935274634
 H         5.2911120422       -2.5013312101       -0.3005112024
 H         5.8145815071       -1.0787612380       -1.0930483973
 H         3.4744147167       -5.3843200901       -3.2954209741
 H         4.4303819643       -4.9171241505       -4.6880744722
 H         2.2129491191       -3.4400403067       -3.3095819539
 H         2.8805972613       -2.8505629403       -4.8155259847
 H         2.1763719846       -1.7647786528       -3.6986167646
 H         5.3523651408       -1.8328617648       -4.6347316634
 H         4.2630205100       -0.5927948650       -4.0335377716
 H         5.7759604670       -1.0241262311       -3.1577324939
 H         5.5286499569       -6.8405062109       -4.4089446100
 H         6.2685194171       -6.0018688539       -2.9995611359
 H         7.4866429500      -10.2456052446       -3.5830457693
 H         6.4728675872      -11.1206671979       -4.6456417171
 H         7.6090951275       -9.8471790656       -5.2361933421
 H         6.5810870158       -8.4001265266       -0.9085579502
 H         7.6138327769       -8.4211931712       -2.3415216735
 H         7.0098516807       -9.9519406117       -1.6643855294
 H         4.0167519258       -9.6124932141       -1.1064647639
 H         3.5503866313      -10.0465460047       -2.7375881367
 H         4.9623516911      -10.9327541504       -2.1191239583
 Na        1.7062057976       -0.6369623412        0.7603894575
