155

 C        -5.4246587266        1.8060957010        6.1259203085
 C        -4.4743067210        0.8193571519        5.5172700826
 C        -4.7132092765       -0.6876941779        5.7877289079
 C        -5.3171875046       -1.1898771383        4.3244395593
 C        -6.8065222123       -0.9909924255        4.1144073168
 C        -3.2600480070       -1.2662974335        6.0323272347
 C        -5.4313780995       -1.0874514383        7.0967041994
 O        -3.5591412977        1.2761949709        4.8550116871
 O        -4.5193605523       -1.4770908144        3.4532039607
 C        -7.0922060856       -0.6731521749        2.6349680229
 C        -8.4787663125       -0.0549752180        2.3467785282
 C        -8.5752533512        0.2673975126        0.7699305672
 C        -7.3628598691        1.2058774812        0.4113088367
 C        -7.7025623056        2.7260759023        0.3760436581
 O        -9.3201755893        0.1211597242        3.1722940328
 O        -6.2678617522        0.8326390065        0.1132586406
 C        -8.4241416269       -0.9423933178       -0.1265757787
 C        -9.9892782507        0.8007111531        0.3582858268
 C        -6.4075257126        3.5344272984        0.4137245903
 C        -5.5448660095        3.2651338622        1.7527187570
 C        -4.0319014380        3.7090690067        1.6624795386
 C        -3.4378876422        2.4423269069        0.9755133108
 C        -3.0854212726        1.2731349967        1.7904077924
 C        -3.8923266414        4.9810735851        0.8561644194
 C        -3.4110674818        3.8378070939        3.1419842638
 O        -5.9831024233        2.5594347576        2.6588248714
 O        -3.4689313373        2.3783167437       -0.2329727614
 C        -2.9337905713       -0.0363729422        1.0068645098
 C        -1.6545916579       -0.2963116381        0.3674245470
 C        -1.4920201184       -0.5463309610       -1.1230814437
 C        -0.4420777770        0.6237972571       -1.6513613195
 C        -0.9827874536        1.8233697881       -2.3586153932
 O        -0.6538547933       -0.2485487669        1.0704460790
 O         0.7504561161        0.5028618680       -1.3835528590
 C        -0.8032065140       -1.9042589733       -1.4986855674
 C        -2.7213250638       -0.5150635667       -2.0433525865
 C         0.0823564633        2.7086297914       -3.0106210369
 C         0.4764575248        3.9657787898       -2.2406957928
 C         1.2623811687        5.1735014731       -2.7674307644
 C         2.7855354487        4.9238432020       -2.4998898757
 C         3.2054031090        3.9055668702       -1.3199758791
 C         0.9641479422        5.4720363700       -4.2496217211
 C         0.8196631394        6.4443749451       -1.8781437004
 O         0.0556736651        3.9568447121       -1.0867654077
 O         3.5755686482        5.4361250615       -3.2301733137
 C         4.6895538963        3.6356076100       -1.4966157017
 C         5.0461267565        2.2282272432       -1.1374585452
 C         5.3341874035        1.9538866351        0.3275630240
 C         4.3784045028        0.7065498676        0.6042267470
 C         4.6892144895       -0.8096437146        0.7509887329
 O         5.2160686901        1.3498397412       -1.9738944977
 O         3.2132344820        1.0508594113        0.9156739964
 C         6.8432047975        1.6685319654        0.4125022606
 C         5.0872339161        3.1074087832        1.3909451281
 C         5.0774442142       -1.6633536132       -0.5144895318
 C         3.9855768579       -1.9121826147       -1.4395058726
 C         4.1099326763       -2.4563363141       -2.8795515576
 C         5.0072199392       -3.8593268020       -2.8492813717
 C         4.4664212119       -4.9595668651       -3.7383427802
 C         2.7020613278       -2.6367853171       -3.4728321451
 C         5.0140377439       -1.5925537796       -3.7938662013
 O         2.8617074290       -1.6511159069       -0.9513891917
 O         5.9409003051       -3.8014230342       -2.1422539985
 C         5.5332762828       -6.1034082739       -3.6447439306
 C         4.9640004375       -7.2165796232       -2.6493679611
 C         5.5902540083       -8.7266516169       -2.7333478659
 C         5.8374977969       -9.1704211325       -4.1915251431
 C         6.9441066646      -10.2488012035       -4.5767177321
 O         4.2193062160       -6.9321248282       -1.6747987170
 O         5.1207748808       -8.8482455984       -5.1175601544
 C         6.8580797507       -8.6567952058       -1.8877190220
 C         4.6395402753       -9.7242345420       -2.0869644858
 H        -5.8719789941        2.4069284825        5.3440872427
 H        -6.1680236856        1.4250067440        6.7560576693
 H        -4.8518523333        2.4004479771        6.8601027080
 H        -7.3147036131       -1.9463125736        4.2276862346
 H        -7.1439507362       -0.1961206465        4.7636569774
 H        -2.7872890842       -0.6880369159        6.8808487752
 H        -2.5613122476       -1.0800048669        5.2213100242
 H        -3.2488167069       -2.2819414123        6.3026586142
 H        -5.2859665480       -2.1932311664        7.2872975025
 H        -4.9674392283       -0.6457730471        7.9320094635
 H        -6.4995754776       -0.8941713893        7.0388189567
 H        -6.4438593171        0.1520607953        2.2540623511
 H        -6.8480900307       -1.5086571092        2.0413602898
 H        -8.1754265794        2.9692470593       -0.5898776530
 H        -8.4420536745        2.9839936490        1.1524166830
 H        -8.3649228862       -0.6203690960       -1.2033431845
 H        -9.1818548945       -1.6737511882       -0.1440129263
 H        -7.5080674180       -1.4857468203        0.0620391879
 H       -10.4053751015        1.6457775261        0.9335854782
 H       -10.0893881190        0.6954037753       -0.7373345777
 H       -10.7784196316        0.1601416362        0.8049802468
 H        -6.5443861880        4.5675571945        0.6444497008
 H        -5.8053290693        3.3744524758       -0.4500658058
 H        -2.1998581060        1.4234529284        2.3715505051
 H        -3.7378106786        1.1009494523        2.6520169311
 H        -2.8702047390        5.3612968905        0.8224690878
 H        -4.4223125980        5.7978458435        1.3354949057
 H        -4.2411110201        4.9392483992       -0.1414089326
 H        -3.7422027913        4.8418262417        3.5147474090
 H        -3.6662095543        3.0582144685        3.8388651477
 H        -2.3200803480        3.8453762262        3.0524084778
 H        -3.0866080463       -0.8415953604        1.7324584401
 H        -3.7366902056       -0.0640790178        0.2904630389
 H        -1.7830614921        1.5948543587       -3.0614647294
 H        -1.4953590791        2.4289914817       -1.5661949800
 H        -1.3399036630       -2.7711194230       -1.0742096461
 H         0.2584534789       -1.8722351613       -1.2074199135
 H        -0.8217463071       -2.0750168248       -2.5672071725
 H        -3.1168439566        0.5085368965       -2.0872691173
 H        -2.3021989413       -0.5679273441       -3.0495791923
 H        -3.3094661159       -1.3805551974       -1.8730167689
 H        -0.3674484547        3.0693634561       -3.9767363400
 H         1.0993228623        2.2482756104       -3.3295074485
 H         2.9676731290        4.3815723465       -0.3628018702
 H         2.5887303435        3.0438536318       -1.4666932014
 H         1.3321549526        4.7308007845       -4.9896284889
 H         1.3833191772        6.4061222939       -4.5798788043
 H        -0.0380409011        5.5059296819       -4.5102678782
 H        -0.3010856936        6.5346630352       -1.8114315355
 H         1.2414912210        6.3297526888       -0.9406854118
 H         1.1811210529        7.3602115187       -2.2712425424
 H         4.9627459547        3.7095088326       -2.5192118431
 H         5.2631994457        4.2584324301       -0.7780586480
 H         5.4373247183       -0.7541356426        1.5515095168
 H         3.8511263571       -1.2232768248        1.3327928640
 H         6.9767100289        1.3611440670        1.4311629230
 H         7.3156975869        2.6630160792        0.3871958342
 H         7.1714554177        0.8602205123       -0.2035308424
 H         3.9768782684        3.3624417257        1.3010123628
 H         5.2510013753        2.5870073879        2.3937028968
 H         5.8436299484        3.9309978396        1.4199897075
 H         5.5194656566       -2.6227656883       -0.1903283037
 H         5.7967659761       -1.1630435582       -1.2010167347
 H         3.4743451210       -5.3676355490       -3.4240440761
 H         4.3647680854       -4.6519007864       -4.8144153699
 H         1.9271899041       -3.0840296003       -2.8272158031
 H         2.5848079672       -3.0172837289       -4.4673516582
 H         2.3403334905       -1.5720216556       -3.5324388946
 H         5.1306912095       -1.9884785058       -4.8599088625
 H         4.5782298920       -0.6201636119       -3.8037046850
 H         5.9484063313       -1.4968012906       -3.3102296988
 H         5.7725730139       -6.5071419442       -4.6309278975
 H         6.4513508983       -5.7807075550       -3.1645983663
 H         7.2499254417      -11.0812772602       -3.9494137415
 H         6.6456487745      -10.6652482579       -5.5716641155
 H         7.9011172575       -9.6998570164       -4.7073207989
 H         6.4544477298       -8.4362517851       -0.8654810647
 H         7.5566051436       -7.9153002710       -2.2913438582
 H         7.4051571605       -9.5982125281       -2.0266845588
 H         4.6719628857       -9.4947623846       -1.0192661472
 H         3.5755762539       -9.5928264028       -2.3256925502
 H         4.9100108455      -10.7756436140       -2.3200781400
 Na        1.6509315360       -0.3047145938        0.6129255077
