155

 C        -5.4094493557        1.9064106657        6.2415368415
 C        -4.5393227659        0.8379527144        5.6761408893
 C        -4.7133759016       -0.6802713282        5.9287435279
 C        -5.2346611840       -0.9983427610        4.5289868818
 C        -6.7948384353       -0.7293739582        4.2348920547
 C        -3.3493494396       -1.2894907471        6.0471259185
 C        -5.6962951519       -1.0240973134        7.0346028229
 O        -3.7504910622        1.2500030959        4.8045244868
 O        -4.4783531655       -1.3666001259        3.6599228185
 C        -7.1321754196       -0.9333684508        2.7455962117
 C        -8.3508906461       -0.2208388096        2.1451945669
 C        -8.5196513544        0.1818614462        0.5970578335
 C        -7.4581985878        1.1811453275        0.3642544784
 C        -7.7129808588        2.7049172056        0.5882011512
 O        -9.3850948602        0.0118133122        2.8045077410
 O        -6.3087249260        0.7560757877        0.1943914929
 C        -8.3473846828       -1.0890671269       -0.2606540800
 C        -9.9110618701        0.8684245798        0.3367123394
 C        -6.4547612892        3.4858465986        0.4669891717
 C        -5.5881586564        3.1875972982        1.6689326079
 C        -4.1190488601        3.6713673291        1.7005438794
 C        -3.3659061993        2.3961588411        0.9918999757
 C        -2.9421786263        1.1607087765        1.7685784997
 C        -3.8513628000        4.9660947105        0.8928698682
 C        -3.7160636613        3.8745450243        3.1836450266
 O        -6.0713206765        2.5679992117        2.5859248591
 O        -3.2405375194        2.3805209542       -0.2524600775
 C        -3.0589352279       -0.1777217670        0.9009691132
 C        -1.7458341523       -0.3759496912        0.1775272121
 C        -1.5608520380       -0.5430421680       -1.3808441149
 C        -0.5533247666        0.6019199931       -1.8926656650
 C        -1.1635024829        1.9296352640       -2.4092049601
 O        -0.7391702783       -0.4985731494        0.9221997977
 O         0.6744358390        0.5483689190       -1.8996288501
 C        -0.7570632773       -1.8215967763       -1.4322400919
 C        -2.8948388305       -0.5970853176       -2.2431201232
 C        -0.1035398552        2.9237319616       -2.9904406999
 C         0.4180704362        3.9631517500       -2.0108031624
 C         1.2763056355        5.1295056716       -2.6243455784
 C         2.8135489142        4.7363488597       -2.4919662748
 C         3.1996929490        3.7597038223       -1.3310843008
 C         1.0644458416        5.3677921503       -4.1882618187
 C         1.0628478885        6.4260931706       -1.7653976390
 O         0.2017183271        3.8662494745       -0.8091178427
 O         3.6012026892        5.1730139275       -3.2957333075
 C         4.7410292428        3.6322603915       -1.3551775381
 C         5.1039788904        2.2460281154       -0.9350965749
 C         5.3818745360        1.8868047243        0.5182551649
 C         4.3958123072        0.6990400532        0.8666064598
 C         4.9648373879       -0.7812085548        0.8822537754
 O         5.0374696807        1.3809599847       -1.7962989589
 O         3.2523004148        0.8758184234        1.0858564049
 C         6.8623278134        1.3834462434        0.7294510118
 C         4.9389733728        3.0754275679        1.5073636400
 C         5.1181711025       -1.1608917079       -0.5773053766
 C         3.9227611211       -1.7838834263       -1.3172178304
 C         4.1099259420       -2.4150850524       -2.7523007944
 C         4.9699864865       -3.7981316888       -2.7169415997
 C         4.6469775167       -4.8342423738       -3.8464889636
 C         2.7302834496       -2.5984245554       -3.2952083446
 C         5.0064362674       -1.3989492869       -3.6195305329
 O         2.8552152898       -1.7578482991       -0.7806575515
 O         6.0727106197       -3.8023145993       -2.1285382494
 C         5.5792556255       -6.0615140427       -3.9193876782
 C         5.2392279944       -7.0578027204       -2.7798164015
 C         5.7687465093       -8.5733903263       -2.8641178730
 C         5.8813511507       -9.1210632696       -4.2878074267
 C         6.9174395120      -10.1480653882       -4.4591238942
 O         4.3946762349       -6.8661667030       -1.9525936051
 O         5.1743017773       -8.6843167524       -5.1574519930
 C         7.1684185022       -8.4961341859       -2.0715796679
 C         4.7465105505       -9.4730654844       -2.1082913371
 H        -5.8917477309        2.3916850123        5.4137824479
 H        -6.2194299199        1.6000060310        6.9402351253
 H        -4.8049444673        2.5617722827        6.7977563105
 H        -7.3939660093       -1.4159128783        4.8351407360
 H        -7.0757672912        0.3137456796        4.4185218099
 H        -2.7617169957       -0.9878828221        6.8887958894
 H        -2.7169916098       -0.9633268450        5.2208513106
 H        -3.4827810444       -2.4039065873        6.0087870511
 H        -5.9544211838       -2.0613988799        7.0218212738
 H        -5.1445149529       -0.9071009465        8.0337936208
 H        -6.6487510915       -0.4875228654        6.8891055633
 H        -6.2556526052       -0.7275305846        2.1668125799
 H        -7.5048493847       -1.9858063363        2.5127354609
 H        -8.4411868839        3.0520339616       -0.1748193862
 H        -8.1356862140        2.8129537284        1.5947311505
 H        -7.9693911742       -1.0387529565       -1.2606358334
 H        -9.3829473741       -1.5080819375       -0.4348041828
 H        -7.7964476723       -1.9128926742        0.1831107748
 H       -10.2328188259        1.4383311897        1.1575366093
 H        -9.8210049273        1.3171070266       -0.6161949609
 H       -10.7108921702        0.1621767067        0.2741637128
 H        -6.5079170988        4.5844948293        0.2696802468
 H        -5.7862430844        2.9171612590       -0.1922461358
 H        -1.9549134601        1.2481651033        2.3096250824
 H        -3.5262799483        1.0662370989        2.6938041044
 H        -2.9478302511        5.4998840117        1.1911686884
 H        -4.6282015018        5.7253585153        1.0374389001
 H        -3.8247152238        4.8351675935       -0.2282508370
 H        -4.2544749649        4.7206842543        3.4985628195
 H        -4.0105820024        2.9934305180        3.7542885979
 H        -2.6752912968        3.9869875396        3.3496195061
 H        -3.1515197647       -1.0875441745        1.5354485716
 H        -4.0225655227       -0.0765326553        0.3360531734
 H        -1.7727595737        1.6981016837       -3.2922323880
 H        -1.8852285862        2.3441903939       -1.7271186079
 H        -1.3115641247       -2.6681378452       -1.8153889681
 H        -0.2915847506       -2.0812068795       -0.4851258152
 H         0.1034342949       -1.6772626053       -2.1339658071
 H        -3.6436797233       -0.0415383690       -1.7166970951
 H        -2.8687580640       -0.0587555895       -3.1727723796
 H        -3.1072663664       -1.6832036351       -2.3065480123
 H        -0.4277146950        3.3100390235       -3.9444021082
 H         0.8265319660        2.4739561059       -3.2256133738
 H         2.7624007760        4.0653843824       -0.3724661480
 H         2.7185060547        2.7938859761       -1.6503262865
 H         1.0908601418        4.5700973570       -4.8800251925
 H         1.6844136412        6.1564205579       -4.6359490907
 H         0.0218749996        5.8061957952       -4.4083019770
 H         0.0262120254        6.5724677672       -1.6424833943
 H         1.4347643002        6.3406398660       -0.6806585649
 H         1.4930408738        7.3383980160       -2.2470467495
 H         5.0657502450        3.5405931870       -2.4383559515
 H         5.1694419564        4.3428628267       -0.6992222774
 H         5.8755693801       -0.7770472173        1.4726492409
 H         4.3262162909       -1.3700670241        1.5166212884
 H         7.0817716332        1.1572144285        1.7741811533
 H         7.6117753165        2.0915871920        0.4522984622
 H         6.9307239869        0.4631157363        0.1108940907
 H         3.8977437197        3.2677913505        1.4519646940
 H         5.1591974636        2.7804600172        2.4936069989
 H         5.6261889630        3.8719739405        1.3631235357
 H         5.9312312017       -1.8833491343       -0.7201581405
 H         5.4056297331       -0.2372511821       -1.0945668907
 H         3.6500828534       -5.2104410028       -3.6882299814
 H         4.6846527785       -4.3392725163       -4.8005011157
 H         2.1950117616       -3.2829451726       -2.6473854531
 H         2.6635951523       -2.9973220602       -4.3230148248
 H         2.1278052100       -1.7211337579       -3.2250164409
 H         4.8290519509       -1.6172541621       -4.6339389651
 H         4.5551873309       -0.3824962255       -3.4073828371
 H         6.1217722126       -1.3564962946       -3.3740613527
 H         5.5614159585       -6.6112643445       -4.8886428584
 H         6.6358264838       -5.7801736726       -3.7905066236
 H         6.4655600806      -11.1168096427       -4.2103095647
 H         7.1841086047      -10.2104882924       -5.4691674068
 H         7.7947598485      -10.1240073971       -3.8847560604
 H         6.9262800563       -8.0559065528       -1.1299868380
 H         7.8914084785       -7.9663897702       -2.6914465907
 H         7.6486808411       -9.4848615394       -1.9919303753
 H         4.4507293029       -9.1320974944       -1.1587472648
 H         3.8713739738       -9.5775781815       -2.6918670767
 H         5.1727817892      -10.4183314482       -1.9776493903
 Na        1.3416728463       -0.3470179397        0.1774073123
