155

 C        -8.3766826513        0.6538977709        6.4401271236
 C        -6.8970832375        0.4109105873        6.0849311812
 C        -6.3799745819       -1.1436606664        5.8650104392
 C        -6.5493038652       -1.2699669109        4.2938673995
 C        -8.0090709720       -1.6498848782        3.8748089715
 C        -4.9066843626       -1.3301541211        6.2718087588
 C        -7.2398253729       -2.0808427611        6.6494153499
 O        -6.1014690963        1.2986845305        6.0348847583
 O        -5.7548923765       -0.8865094545        3.5227080734
 C        -8.2814449799       -2.1589817941        2.4674539139
 C        -9.4286401046       -1.3076201680        1.6378330918
 C        -9.1267850492       -0.9481884396        0.2312032056
 C        -7.9517324902        0.1090422985        0.2101699078
 C        -8.1286033356        1.5043121374        0.8336920963
 O       -10.4830611332       -0.9042464772        2.2348230808
 O        -6.9981799728       -0.2353005300       -0.4515169629
 C        -8.7657316995       -2.1103583467       -0.6544253423
 C       -10.3624215607       -0.2726404743       -0.4180033119
 C        -6.9046881140        2.4193204187        0.5710119576
 C        -6.1445420212        2.5915302982        1.8557746200
 C        -4.5905626722        2.9934774020        1.7058996088
 C        -3.9856335110        1.9572470819        0.7850869066
 C        -3.6301656674        0.5191589674        1.3054709753
 C        -4.5818780031        4.3699574625        1.0173466132
 C        -3.8350170999        2.9434853950        3.1097739687
 O        -6.6345371405        2.3833551743        2.9331457973
 O        -3.8350030697        2.1780773621       -0.3682309827
 C        -3.3621747813       -0.3638986356        0.0234730784
 C        -2.0623192568       -0.0162696094       -0.5915378455
 C        -1.9781572399        0.2100722128       -2.2581991097
 C        -0.6090758496        0.7443275856       -2.7206418573
 C        -0.3664323471        2.0969014362       -3.4256151482
 O        -0.9689560220       -0.0726663130       -0.0041641981
 O         0.3981566017        0.0111898058       -2.7166979869
 C        -2.1497576326       -1.1908601213       -2.6768275759
 C        -3.0934066622        1.1569711940       -2.6088191714
 C         1.1348335019        2.4919535079       -3.4653648103
 C         1.5601542103        2.9313308420       -2.0589619104
 C         2.3812124525        4.1441175046       -1.5191716657
 C         3.7399826217        3.7680267370       -0.7487148468
 C         3.7340873180        2.5944941473        0.2145641294
 C         2.9161239004        5.2416798341       -2.6245571113
 C         1.4494386483        4.8787793188       -0.4805817234
 O         1.1217742556        2.3177728201       -1.0833476995
 O         4.6412376327        4.4895188192       -0.9762027570
 C         4.9747776097        2.4234107988        1.0175215891
 C         5.2466628576        0.9617690746        1.3077491183
 C         4.3393338284        0.1154565408        2.3088358277
 C         3.2083501287       -0.5007749237        1.4787517450
 C         3.3725764967       -1.9108838211        0.7546949878
 O         6.2250599005        0.3851215208        0.8309335249
 O         2.1030162964        0.0322753637        1.4920725255
 C         5.1920056055       -0.9660219482        2.9651382721
 C         3.7816775769        1.0688965128        3.3958667251
 C         4.5327080362       -2.0111126537       -0.3708560847
 C         4.1844153207       -1.1918697653       -1.5946079590
 C         5.0210980593       -1.2278367068       -2.9437120002
 C         6.4426111292       -1.8584680935       -2.7956363108
 C         7.4340391555       -1.9163131807       -4.1019811459
 C         4.1133162762       -2.1367717289       -3.9658936454
 C         5.1339705927        0.2373463056       -3.4952800261
 O         3.1591631214       -0.5567013763       -1.6117962516
 O         6.8447128825       -2.1846719849       -1.7226914599
 C         8.2258577545       -3.2336179189       -3.8567518822
 C         7.2883120236       -4.4772667029       -3.8566171136
 C         7.9245179279       -5.8303538419       -3.7590683259
 C         8.2639759507       -6.0560120806       -5.3938560615
 C         7.3270121449       -6.9553095675       -6.3403660835
 O         6.0336822368       -4.4430754658       -3.8195581157
 O         9.0417263236       -5.3189954798       -5.9693349735
 C         9.3669612413       -5.9843399567       -3.0484767941
 C         7.1022719175       -7.0158466193       -3.1998845188
 H        -8.6069931967        0.4572359839        7.5109263409
 H        -8.7693275722        1.6305463832        6.1372774818
 H        -9.0472838563       -0.0746267887        5.8832123595
 H        -8.3524103383       -2.4345667547        4.6188378015
 H        -8.5679398362       -0.7460076143        4.0314530466
 H        -4.7986575471       -1.0082827281        7.3162273890
 H        -4.1613454047       -0.8909176833        5.6272479794
 H        -4.7541458769       -2.4321683972        6.2586011947
 H        -7.2526554608       -1.7784857974        7.7019170477
 H        -8.2650684377       -2.0526369850        6.3439216812
 H        -6.9321283759       -3.0695455882        6.5046853523
 H        -7.3282253042       -2.1633128928        1.8679042880
 H        -8.7514125309       -3.1226776893        2.2746703126
 H        -9.0248900269        2.0434704748        0.4118003344
 H        -8.4735056437        1.3489407353        1.8807466496
 H        -7.6665834959       -2.2911399669       -0.5537412461
 H        -8.9311092106       -1.8026303707       -1.7237518609
 H        -9.2757140717       -3.0219249576       -0.5121191139
 H       -10.7799431201        0.4392113070        0.3697267145
 H       -10.1995435557        0.1635534020       -1.4474943925
 H       -11.1593218721       -1.0496176335       -0.5624638357
 H        -7.2193103971        3.3489826586        0.1275873941
 H        -6.2813689344        2.0114321509       -0.2890648896
 H        -2.8267369152        0.5867867733        1.9852567967
 H        -4.3481684437        0.2393829583        2.0786280232
 H        -4.9211595053        4.3158300134       -0.0165761397
 H        -3.5728017589        4.7858793295        1.0351464231
 H        -5.1843905662        5.1418765809        1.5482457641
 H        -4.0967868212        3.7559129272        3.7951907017
 H        -4.0105219440        2.0436199378        3.7205026173
 H        -2.7977557990        3.0810386361        2.8005200087
 H        -3.2492136154       -1.4294537241        0.2018274104
 H        -4.1308784326       -0.1371267788       -0.6570215290
 H        -0.7127146847        2.0359612650       -4.4420873403
 H        -0.8815324317        2.8823308324       -2.8760278048
 H        -1.2232248163       -1.7216613036       -2.7586591241
 H        -2.7566301991       -1.1827935859       -3.5438213468
 H        -2.7435559154       -1.7838403773       -1.9506824302
 H        -3.3874182132        0.9786174838       -3.6956403064
 H        -3.9743933195        1.0278216218       -2.0194788899
 H        -2.6884557072        2.1541453506       -2.4360176085
 H         1.3223501357        3.1946233740       -4.2563658884
 H         1.6846093616        1.5745473450       -3.6617510549
 H         2.8529719626        2.5616546596        0.7387225337
 H         3.7341029153        1.7817616118       -0.5275466020
 H         3.3241869831        4.7972991624       -3.5161903281
 H         3.6517761660        5.9425752817       -2.1878207208
 H         1.9954433113        5.7196954881       -2.8231768693
 H         0.6293975011        5.3860544446       -1.0199208677
 H         1.0536527919        4.2108388514        0.1877546746
 H         1.8980250600        5.6679934013        0.0023445112
 H         5.7536815387        2.9013215091        0.3576119343
 H         5.0080688562        3.0784043677        1.8687694452
 H         3.6664716855       -2.6450484789        1.5368586873
 H         2.3381302396       -2.1796880078        0.3882301957
 H         4.5470952326       -1.6174586671        3.5403717151
 H         5.8870500958       -0.4405532826        3.6295035016
 H         5.9058981703       -1.4155437196        2.2825228058
 H         3.1833617112        0.4933211817        4.1320614602
 H         4.7343549351        1.4696728368        3.8031935955
 H         3.2706477579        1.9074184245        2.9022241896
 H         4.6401560820       -3.0624866973       -0.6007448201
 H         5.4679877920       -1.6251061199        0.0895352563
 H         6.7974403416       -2.1719318735       -4.9380623368
 H         8.1396673285       -1.0929451213       -4.3157858733
 H         4.3721039427       -3.1920338860       -3.8008999026
 H         4.4017813803       -1.8185461530       -4.9805106694
 H         3.0703971004       -1.9511598633       -3.9208137172
 H         5.4045997193        0.4119850347       -4.5614581208
 H         4.2093761936        0.7446820322       -3.3717010931
 H         5.8590126194        0.7461465548       -2.9487435031
 H         8.8726281133       -3.4444864476       -4.6749476214
 H         8.8867490647       -3.3249820529       -2.9612899985
 H         7.0355283386       -7.9400077149       -5.9148882395
 H         6.3364695798       -6.4202978236       -6.2681162033
 H         7.6437485674       -6.9974291412       -7.3613071467
 H         9.2482675314       -6.0176718610       -1.9269866321
 H        10.0198626333       -5.1486868352       -3.2386239746
 H         9.6205076055       -7.0013867148       -3.3716218716
 H         6.6885892115       -6.7936322017       -2.1842659969
 H         6.2404017794       -7.0612071154       -3.8996424561
 H         7.7987855620       -7.9053921647       -3.1741545707
 Na        1.3481389970       -0.0133776460       -0.5675311604
