155

 C        -8.4007343320        0.5775406144        6.6684172773
 C        -6.9238107370        0.3563982865        6.2408344209
 C        -6.4680329395       -1.1119270673        5.7593652149
 C        -6.9108871330       -1.2116783211        4.2436447977
 C        -8.3381872696       -1.4033674085        3.7641097645
 C        -4.9230123038       -1.1233939777        5.7330225838
 C        -7.1693341845       -2.1657917048        6.6535920523
 O        -6.1301943763        1.2668583663        6.1509745820
 O        -6.0601330869       -1.1076746377        3.3267696506
 C        -8.3210957733       -1.9764260890        2.3377992630
 C        -9.4727832698       -1.4380306962        1.6092342526
 C        -9.2874913406       -0.9927543750        0.0467272776
 C        -8.0434202568       -0.0189877842        0.0937798540
 C        -8.2129862266        1.4293029942        0.6991413703
 O       -10.5025268005       -1.2436157114        2.1589150581
 O        -6.9254997422       -0.4031815162       -0.2275444150
 C        -8.9686374092       -2.3288310554       -0.6571965613
 C       -10.6310280653       -0.3883103174       -0.4255411829
 C        -6.8906287735        2.2597492784        0.6941003781
 C        -6.1534173044        2.4842539961        2.0069229060
 C        -4.6070367716        2.8260545619        1.8656668347
 C        -3.9109187608        1.9894678424        0.7694978562
 C        -3.6392035959        0.5319115893        1.0905344290
 C        -4.5457462600        4.3031928627        1.4039808417
 C        -3.9362359256        2.8686996072        3.1935473024
 O        -6.6257909530        2.4940204136        3.1074638676
 O        -3.4580898413        2.5222293397       -0.2834452963
 C        -3.2850837364       -0.3108406982       -0.0795833154
 C        -1.8829079899        0.0875318478       -0.7650833521
 C        -1.9034625763        0.3264991864       -2.3479945892
 C        -0.4362304964        0.6309304031       -2.8690394871
 C        -0.1740657088        1.9592220250       -3.4782908994
 O        -0.9221098125        0.1094609216       -0.0704179724
 O         0.3824158261       -0.2425681854       -2.8776251478
 C        -2.2712744840       -1.0664056207       -3.0447638127
 C        -2.8949784048        1.2897159369       -2.9808075423
 C         1.3261879703        2.4846445959       -3.2807042895
 C         1.5218696627        2.9198700248       -1.7357311998
 C         2.4305691062        4.1546072174       -1.4260858237
 C         3.7034295283        3.6869888334       -0.7114985211
 C         3.5903188743        2.3097847753        0.1559871971
 C         2.6585572306        4.8469890429       -2.7627797043
 C         1.6555476702        5.1121124971       -0.4222674246
 O         0.9878075718        2.2937676652       -0.8600956926
 O         4.6937528447        4.4176591249       -0.6436395126
 C         4.8846730103        2.3362387336        1.0654601314
 C         5.3066166786        0.9434298684        1.2451753467
 C         4.5163296053        0.1055677290        2.4660315700
 C         3.3668156642       -0.5536296382        1.5512677884
 C         3.4861800043       -1.8663414894        0.7246852085
 O         6.2161890114        0.4506487738        0.6726247765
 O         2.3598993757        0.1232517951        1.4854331741
 C         5.4784644150       -0.9718704706        3.1004633729
 C         3.6945226178        0.9811276028        3.5480530274
 C         4.4613627312       -1.8685809204       -0.4321793570
 C         4.0561007955       -1.0845437729       -1.6356700322
 C         4.9831347735       -1.1107108747       -2.8988702444
 C         6.4349732925       -1.7500881080       -2.6855200144
 C         7.3004069515       -1.9985623263       -3.9301411779
 C         4.2364784623       -1.8673614689       -4.0395102109
 C         5.0936995408        0.3587870337       -3.3926815576
 O         3.0726128242       -0.3532248702       -1.6211656830
 O         6.7900550497       -2.0987463067       -1.5734708522
 C         8.1995578359       -3.1900930112       -3.8268826830
 C         7.2137043063       -4.4897816338       -3.8166709074
 C         8.0448779087       -5.8156164236       -3.9200140948
 C         8.4942109361       -5.8735480669       -5.5154538212
 C         7.8033863433       -7.0187830763       -6.3264407796
 O         6.0145146751       -4.5275970008       -3.5762314373
 O         9.1011958517       -4.9384318577       -5.9441168335
 C         9.3900802642       -5.7280600650       -3.1992140536
 C         7.1179720241       -7.0217209615       -3.4709047335
 H        -8.4475550426        0.5701910527        7.7439901222
 H        -8.7219376048        1.5795168866        6.3407862900
 H        -9.1320404459       -0.0668723305        6.3191491526
 H        -8.8456592165       -2.1554667183        4.3140775277
 H        -8.7197632257       -0.3247125467        3.9233174883
 H        -4.4996485635       -1.4062567353        6.6865439930
 H        -4.5962976699       -0.1414196839        5.3705503151
 H        -4.5423399945       -1.8519519595        5.0195264243
 H        -6.7493515877       -2.0595133710        7.6455890778
 H        -8.2912333602       -2.1410616704        6.7298566589
 H        -6.9003644504       -3.1955458423        6.2412034495
 H        -7.4028478050       -1.8017799513        1.7931670007
 H        -8.4890425121       -3.0753641224        2.4111883962
 H        -8.9562399797        2.0433163249        0.1913645359
 H        -8.6520305211        1.3992071572        1.7169543575
 H        -7.9051583692       -2.4063907015       -0.7589741152
 H        -9.3432785326       -2.4048739542       -1.6565050383
 H        -9.3394096183       -3.2455135346       -0.0725878447
 H       -10.8010082688        0.5687348416       -0.0387211888
 H       -10.3876853314       -0.1976434019       -1.4530858729
 H       -11.4851263698       -1.0127869477       -0.3661046115
 H        -7.0575910791        3.2168920177        0.1774576711
 H        -6.2292981392        1.8224964059        0.0231476489
 H        -3.0558853156        0.3946175374        2.0441486651
 H        -4.5767025825        0.1649524032        1.5161059015
 H        -5.0395019531        4.4875781276        0.4537439133
 H        -3.4841298545        4.5716024452        1.2807706588
 H        -4.9171504703        4.9929635593        2.1182730483
 H        -4.0813630356        3.8306823911        3.6889391239
 H        -4.4764075008        2.2086907483        3.9001903062
 H        -2.8419407258        2.7081054943        3.0955480915
 H        -3.2197798132       -1.2806480182        0.4154598132
 H        -4.1683988324       -0.2244427805       -0.7534385201
 H        -0.2666118845        1.7409004583       -4.5691392732
 H        -0.8941262449        2.7182541432       -3.1717064682
 H        -1.7168462323       -1.8814853023       -2.5770006470
 H        -2.2196001650       -1.0361390605       -4.1424364201
 H        -3.2870470005       -1.2388843260       -2.8295639815
 H        -2.6298402784        1.5176449566       -3.9765677892
 H        -3.8295796188        0.7215888363       -2.9144212597
 H        -3.0393512755        2.1535293967       -2.3336336352
 H         1.4422328745        3.3397805076       -4.0039440438
 H         2.1031494654        1.6716775907       -3.4985840259
 H         2.6359665618        2.2383933299        0.8632257264
 H         3.4732493939        1.4611005048       -0.5470151030
 H         3.4116758902        4.3011045095       -3.3566862946
 H         3.0687269722        5.7922718286       -2.4746190055
 H         1.6768289086        4.9707646244       -3.3347560833
 H         0.6018153533        5.1224368025       -0.6124399885
 H         1.8103135126        4.7797803152        0.6338931611
 H         1.9471778195        6.1901816735       -0.5693057099
 H         5.6041122106        2.9202642361        0.4957935358
 H         4.6945636838        2.8871539343        2.0183358639
 H         3.7954555849       -2.5856625905        1.4797139702
 H         2.5004324371       -2.1968570903        0.3394823776
 H         5.3134041891       -0.9520333838        4.2048739205
 H         6.5279951538       -0.7377304792        2.8623527284
 H         5.3055069204       -1.9732556267        2.6116216386
 H         2.9482014910        0.2458391659        3.8028403529
 H         4.3357253834        1.2768195044        4.3620579500
 H         3.2966746847        1.8857966178        3.0839692397
 H         4.6870408132       -2.9325879463       -0.6805092893
 H         5.3771082584       -1.3754326490       -0.0876594168
 H         6.5497883860       -2.1173213899       -4.7338581160
 H         7.8954739683       -1.0966570184       -4.0173671769
 H         4.3568427086       -2.9145679207       -3.7945424626
 H         4.5675305129       -1.6148316223       -5.0431807783
 H         3.1396516108       -1.5850749499       -4.0709347210
 H         5.6265977387        0.4238533872       -4.3052116653
 H         4.1736141740        0.9721941379       -3.5309546864
 H         5.8080400318        0.9671939006       -2.7365547848
 H         9.1052107946       -3.2693540676       -4.4683779496
 H         8.5228165284       -3.2291679602       -2.8243673226
 H         7.6859083288       -7.8437471698       -5.6380713133
 H         6.8053840626       -6.7594336982       -6.6110900646
 H         8.3633774423       -7.3295019503       -7.2386141537
 H         9.3539339505       -5.3715105170       -2.1889886745
 H         9.8864049124       -4.9526652746       -3.7833270948
 H         9.8326364037       -6.7264558020       -3.2392413050
 H         6.9981797129       -7.0699614520       -2.3847420303
 H         6.1369323102       -6.8250174156       -3.9094298809
 H         7.6215667221       -7.9026705923       -3.8409616155
 Na        1.0989721916       -0.2297064992       -0.5220490231
