155

 C        -8.2769743412        0.2554594344        6.9316947957
 C        -6.8992350820        0.3138779600        6.2225801033
 C        -6.3989106675       -0.9866316232        5.5611213774
 C        -6.9322664386       -1.1134690232        4.0596861022
 C        -8.4635081736       -1.2921671682        3.8055892105
 C        -4.8139428443       -0.8919672379        5.6150356424
 C        -6.8745148675       -2.2165891980        6.3851403708
 O        -6.2182181109        1.2573816098        6.4673988725
 O        -6.1377745899       -1.0557817039        3.1458213141
 C        -8.7718617649       -2.1577062492        2.4956685912
 C        -9.8850137567       -1.4891268654        1.4638163688
 C        -9.5380209805       -1.0547753107        0.0827855288
 C        -8.1525961901       -0.2262685807        0.1585105007
 C        -8.2516525996        1.1735342556        0.6552908933
 O       -11.0689211568       -1.4940491548        1.8014132717
 O        -7.1298125979       -0.7109204169       -0.2986051544
 C        -9.2271211632       -2.2182998374       -0.7883799347
 C       -10.4524975696       -0.1264031792       -0.6853984237
 C        -6.9101125356        1.9386933298        0.5126212958
 C        -6.2764047643        2.1713405857        1.8423884624
 C        -4.6628244300        2.7298736996        2.1350018247
 C        -3.7688954968        2.1039530737        1.0423368486
 C        -3.9898200127        0.6008034784        0.6709662169
 C        -4.7220602905        4.2450290724        2.0584096845
 C        -4.2623681448        2.1805655060        3.4914674705
 O        -6.9485073768        2.1210370608        2.8331964390
 O        -3.0731577337        2.7628807917        0.2718146997
 C        -3.8042619278        0.2084056123       -0.8045302214
 C        -2.3681372584        0.2930211879       -1.2105880425
 C        -2.0212200456        0.2422535966       -2.8621121090
 C        -0.4837525008        0.3256081694       -2.8765821102
 C         0.2091225718        1.6345638797       -3.3096999728
 O        -1.4950109453        0.1835125548       -0.3651344163
 O         0.1881080049       -0.6578333656       -2.5900855710
 C        -2.5606165996       -1.1213521398       -3.2848580020
 C        -2.9187288074        1.2705586199       -3.6314364091
 C         1.6609317480        2.0199292169       -2.9017620234
 C         1.6593920909        2.8396693945       -1.5838872409
 C         2.4082479360        4.2059860491       -1.3357386707
 C         3.8110538377        3.9081402807       -0.5441930498
 C         3.8042608658        2.5523037017        0.2105044794
 C         2.6913632293        4.9679940426       -2.7946596400
 C         1.4532997543        5.0056362779       -0.2971098168
 O         1.0087409544        2.4117339125       -0.6631943803
 O         4.7954174882        4.5372877414       -0.5466389297
 C         4.9902125226        2.4595885193        1.3051034037
 C         5.3481591391        0.8852989409        1.4722665312
 C         4.5914325947       -0.1220406436        2.4366604961
 C         3.3305598577       -0.5411694158        1.6072433529
 C         3.4374221248       -1.8733493328        0.7751054190
 O         6.2867267958        0.4302741497        0.8619446966
 O         2.3130469507        0.1316774900        1.6171122924
 C         5.5461384023       -1.3611144233        2.8862500061
 C         4.0761825025        0.6120445811        3.7046683846
 C         4.5335056682       -2.0446665911       -0.3979264631
 C         4.1922909720       -0.9666107725       -1.3304019839
 C         5.0322335608       -0.8416725152       -2.7497324339
 C         6.5043401117       -1.7039215204       -2.7408549930
 C         7.2840929146       -1.8920048817       -3.9841007974
 C         4.1941539479       -1.4795912111       -3.8469669065
 C         5.2518222184        0.6171503551       -3.1327643832
 O         3.2601417700       -0.1663602810       -1.2137203854
 O         7.0380666420       -1.6740402644       -1.6412370542
 C         8.2213344618       -3.0271377219       -3.8498073443
 C         7.5409022455       -4.3830086184       -3.7687567452
 C         8.2672650638       -5.6654791040       -4.1292835412
 C         8.7425609350       -5.6113773250       -5.7152489675
 C         8.7440709933       -7.0363443726       -6.5017707517
 O         6.3580604816       -4.5525381667       -3.3957592725
 O         9.2253326832       -4.5909142273       -6.1444979114
 C         9.5679763237       -5.7268647858       -3.1876815181
 C         7.3167647846       -6.8880056753       -3.9014795573
 H        -8.0709960415       -0.4484930923        7.7624010209
 H        -8.5184498976        1.2193997284        7.4823167020
 H        -9.1563935478       -0.0404460930        6.3931463904
 H        -8.9539989789       -1.6178653565        4.6972832808
 H        -8.9558956948       -0.3042139916        3.3752353997
 H        -4.4721374490       -0.4822227048        6.5279387230
 H        -4.5140914523       -0.2800461478        4.7588304356
 H        -4.3162585921       -1.8718486761        5.6334656827
 H        -6.5287385285       -2.1256183338        7.3591311375
 H        -7.9935056882       -2.2602960486        6.4296431151
 H        -6.3843586106       -3.1463483678        6.0737135452
 H        -7.7981890144       -2.3458858903        2.0250875310
 H        -9.3414098718       -3.0595720451        2.7851665912
 H        -8.9835035746        1.7703352206        0.0331066235
 H        -8.6303419353        1.2345950257        1.7345114323
 H        -8.9189040766       -3.0399336965       -0.1639229764
 H        -8.4614458362       -2.1312178909       -1.5275856352
 H       -10.2241647755       -2.6168400152       -1.1800943731
 H       -10.7753496467        0.7873414303       -0.2089290586
 H        -9.8958448666        0.3354558634       -1.5015793186
 H       -11.3207473343       -0.7155372114       -1.0077227811
 H        -6.9780041179        2.9340557187        0.0483526344
 H        -6.2777517650        1.3831238366       -0.1016444373
 H        -3.3196580429        0.0262973329        1.3498616768
 H        -4.9904084423        0.3218077264        0.9953411396
 H        -5.1579268921        4.4614327974        1.0757984287
 H        -3.7854183937        4.8546803911        2.0702540569
 H        -5.4090560867        4.6054691607        2.8022903670
 H        -5.2059613506        2.1688474107        4.0215962146
 H        -3.8053204178        1.1482369501        3.4134242546
 H        -3.6034741728        2.8796539913        4.0736641728
 H        -4.0862798112       -0.8206311599       -0.8907536507
 H        -4.4574077814        0.8502271899       -1.3905894472
 H         0.2187282208        1.4351633190       -4.3970757278
 H        -0.4690164348        2.4568608345       -3.1815910935
 H        -1.8224477134       -1.9052603813       -3.0867051188
 H        -2.5631521555       -1.0824014217       -4.3770229012
 H        -3.5241570191       -1.3757221972       -2.9476517504
 H        -2.4090501078        1.4281076335       -4.5852919113
 H        -3.9217633038        0.8330351628       -3.8288191807
 H        -3.0088250210        2.2030620103       -3.0512279382
 H         2.1301667198        2.6070422477       -3.7181576736
 H         2.1771184428        1.0313660803       -2.6962822545
 H         2.7982870898        2.3437028136        0.7391008391
 H         3.7775133211        1.6889840838       -0.4427474972
 H         3.2657334570        4.4856788672       -3.5580330214
 H         2.9923776907        5.9580051402       -2.5569565099
 H         1.6627501334        4.9634886649       -3.3128325887
 H         0.7879040426        5.5760369038       -0.9507305701
 H         0.8262732196        4.4092325789        0.2548685686
 H         1.9321592239        5.6999554863        0.3253718293
 H         5.9636853390        2.9583936846        1.0559031604
 H         4.5923637458        2.7444548510        2.2531630425
 H         3.6505485035       -2.7016365471        1.4585316271
 H         2.4673215805       -2.1148858683        0.3048714812
 H         6.5618706301       -1.0222173186        2.7953845262
 H         5.5645014613       -2.0839219596        2.1109407799
 H         5.1519926928       -1.7206178658        3.8808830332
 H         4.0572357860       -0.1311091108        4.5522755674
 H         4.7016905234        1.5038383792        3.9339352779
 H         3.0644622596        0.9940641041        3.4226888723
 H         4.4332920476       -3.0602448871       -0.8627930891
 H         5.4972228646       -1.9088743161        0.0935623428
 H         6.5612663163       -2.0814395351       -4.8082818862
 H         7.8226172901       -0.9302051693       -4.1116118221
 H         3.9753806334       -2.5269610985       -3.7337091346
 H         4.7670173060       -1.2972530901       -4.7575450960
 H         3.2328162465       -0.9253781458       -3.9836813561
 H         5.6522230061        0.7074215513       -4.0779229442
 H         4.3541812209        1.2148316287       -3.1173351023
 H         5.9151301437        1.2382248563       -2.5301720467
 H         8.8878125774       -3.1481893495       -4.7009468493
 H         8.8153714550       -2.9959754068       -3.0050869466
 H         9.8288208806       -7.2738013041       -6.2540112169
 H         8.0716516416       -7.7181344310       -5.9747547762
 H         8.5154868683       -7.0778562819       -7.5807200895
 H         9.1149872288       -5.9711720150       -2.2125482019
 H        10.1957963028       -4.8451281695       -3.2600381669
 H        10.2632752208       -6.5940144392       -3.5190070693
 H         6.8676726359       -6.8236713743       -2.8630595635
 H         6.5144924966       -6.9018242081       -4.6924506707
 H         7.8595893046       -7.8518981941       -4.1215857294
 Na        0.9334914066        0.2106304950       -0.3718692693
