155

 C         2.9569161958       -0.7092512962       11.5910935764
 C         2.9145163270        0.5419061567       10.6264621771
 C         4.2525295173        0.7585886876        9.6979185189
 C         4.3215441747       -0.3517803664        8.5109593908
 C         5.0410240347        0.0037667230        7.2052922241
 C         4.2425504723        2.2066919474        8.9939224818
 C         5.6142269451        0.6818975015       10.4195393689
 O         1.9691903508        1.2585386112       10.5306341097
 O         3.8494086357       -1.4611035265        8.6566388669
 C         3.8490522823        0.1117906654        6.0760723068
 C         4.4221358874        0.4409165003        4.7010284427
 C         3.8964659407       -0.3635194483        3.4851187217
 C         2.3810329873       -0.4178706329        3.5493912519
 C         1.6245511904       -1.7343245470        3.1335187745
 O         5.1870908703        1.3822127671        4.5864998921
 O         1.7523838118        0.6228954566        3.7752275393
 C         4.4917584513        0.2991664155        2.1829881591
 C         4.5773785325       -1.8668542980        3.6313774350
 C         0.1941315507       -1.8306484157        3.5057310826
 C        -0.6939805784       -2.3193581727        2.3597962444
 C        -2.0721999046       -3.0552347035        2.5041637760
 C        -3.2975773365       -2.2980821704        1.8294431630
 C        -4.4911508733       -1.9269028367        2.6618305274
 C        -1.9671993312       -4.4552325144        1.7308787187
 C        -2.2813993600       -3.3622315643        4.0010850399
 O        -0.3797250889       -1.9187893090        1.2608422222
 O        -3.3542061362       -1.9274737040        0.6777566887
 C        -4.7155055991       -0.4220924520        2.8512195302
 C        -3.7099553236        0.1885607308        3.9413511837
 C        -4.0972339514        1.6330340967        4.4008589705
 C        -3.3144288952        2.7048996635        3.4149568563
 C        -1.8169771311        3.0053322461        3.7060399758
 O        -2.7993085519       -0.4528854795        4.4860757112
 O        -3.8847830288        3.2019557201        2.4537358012
 C        -5.5859890108        1.9966539199        4.2505289789
 C        -3.7384637896        1.9499521220        5.8520118310
 C        -1.2129995649        3.2409542434        2.3823327520
 C        -1.5986116866        2.3054110245        1.2455221000
 C        -1.1467009581        2.8277236487       -0.2984466387
 C        -1.2006344152        1.8154524909       -1.4383087340
 C        -2.2604423391        2.0247250205       -2.5175994075
 C        -1.9420782890        4.1625737379       -0.6780996151
 C         0.5138563472        3.2878541630       -0.0556282145
 O        -2.0236995777        1.1720912968        1.4778893497
 O        -0.5236574922        0.8295866592       -1.4008661347
 C        -2.3105285094        0.7858567709       -3.4790779646
 C        -3.3560318719       -0.3429562436       -3.0302053611
 C        -4.0686288576       -1.0701649386       -4.1596999342
 C        -3.0908831395       -2.2290225890       -4.8130152214
 C        -3.5178215973       -3.5327585442       -5.6358018788
 O        -3.4758296959       -0.6634367051       -1.8307336638
 O        -1.9300790700       -2.0228111587       -4.5949451342
 C        -5.3421944230       -1.6610607244       -3.6117267246
 C        -4.4079312645       -0.0561376938       -5.3255105851
 C        -3.6453305437       -3.2621330404       -7.1372698139
 C        -2.2404985523       -3.1718999912       -7.7491079535
 C        -1.8537035344       -2.0700937290       -8.8345316707
 C        -1.1461603508       -0.8262824485       -8.1747110349
 C         0.2821688140       -0.6868384190       -8.4072420802
 C        -0.9184090104       -2.6900717739       -9.9221432093
 C        -3.0006152968       -1.4978318641       -9.5271290307
 O        -1.3875236320       -3.9541886660       -7.4670729602
 O        -1.7526578616       -0.0061421610       -7.4785165805
 C         0.8998397585        0.6415656463       -7.7971786898
 C         2.2056245810        0.8633796168       -8.5732184802
 C         3.5294519648        1.4558537906       -7.9909594019
 C         2.9726075678        2.8400435952       -7.6100981252
 C         2.8746767351        3.8775163145       -8.7340220463
 O         2.1906333319        0.6323494355       -9.7537037543
 O         2.5034896790        3.0170779543       -6.5259228967
 C         4.0158318410        0.7692055015       -6.6371316777
 C         4.7896902282        1.6384720618       -8.9408187322
 H         2.8894176482       -1.6677336451       11.0437034097
 H         3.8619210655       -0.7879509830       12.1453404597
 H         2.1518499689       -0.8483492253       12.2549382261
 H         5.5418459525        0.9438811896        7.2218382361
 H         5.7967865134       -0.6937350175        6.8214807400
 H         3.8909489911        3.0188141981        9.6754893517
 H         3.4971596950        2.1642356112        8.1667895741
 H         5.2097286779        2.3258307298        8.5620163251
 H         5.8347446414       -0.3849708372       10.7781783625
 H         6.3492762213        0.8665446350        9.6235909553
 H         5.6692850183        1.3337102525       11.2841123066
 H         3.2814874920       -0.9480725369        6.1112283264
 H         3.2125107501        0.9650876643        6.4343354875
 H         1.6396505335       -1.8099824097        2.0371539479
 H         2.1575077271       -2.6430342033        3.4835709658
 H         4.0343142826        1.2646696406        2.1496961935
 H         4.1869702274       -0.2501761512        1.2680323431
 H         5.5878882281        0.3961900078        2.2319273231
 H         4.6085604825       -2.2315106284        4.6302169710
 H         4.0121083374       -2.5490472846        3.0991852007
 H         5.5201350455       -1.8140350682        3.2075228421
 H        -0.1734287214       -0.8139832166        3.8900779649
 H         0.0427364994       -2.4659872343        4.3636732845
 H        -5.2771791452       -2.4115031667        2.1535964186
 H        -4.5443961279       -2.4358587754        3.6924650866
 H        -1.8264355904       -4.3921943427        0.6341965643
 H        -2.9342613029       -4.9779509002        1.9708348388
 H        -1.0772755675       -4.8843185203        2.0588046508
 H        -1.4078477700       -3.9572411022        4.1912034891
 H        -2.5711585813       -2.6046053428        4.7539181409
 H        -3.1559826322       -4.0358922620        4.0490717920
 H        -4.7483150186        0.1185328808        1.8935083323
 H        -5.6727620738       -0.3572226361        3.4000761660
 H        -1.7615362627        3.8528838887        4.3776344396
 H        -1.1575088049        2.2082081977        4.1830700102
 H        -6.2496802553        1.4405600653        4.9099523278
 H        -5.7309823116        2.0904801998        3.1708967415
 H        -5.7802624895        2.9781623607        4.5740923950
 H        -3.7761675049        2.9999302992        6.1812453430
 H        -4.4925058380        1.5893886602        6.5314511495
 H        -2.8755479292        1.4037624643        6.1632625508
 H        -0.0877307435        3.1813653323        2.4405937792
 H        -1.3912118872        4.2481537340        2.0458637716
 H        -3.2070711300        2.2539251753       -2.1179070630
 H        -1.9645125675        2.8967067430       -3.2105537514
 H        -1.6959280091        4.8695609630        0.0501506696
 H        -3.0333150383        4.0386082618       -0.6583465800
 H        -1.6496646642        4.6160597998       -1.6343267843
 H         0.4737705268        4.3958099007        0.0932545479
 H         1.1164033915        2.7181692739        0.6402901135
 H         0.9143821907        3.1271750193       -1.0637307977
 H        -2.5384092942        1.2917377312       -4.4264189363
 H        -1.2200419630        0.5456526133       -3.5519404618
 H        -2.6535170703       -4.0811064126       -5.4441335134
 H        -4.3087355525       -4.0781256980       -5.0981532562
 H        -6.0133624836       -2.0058319769       -4.3960634695
 H        -5.8499684288       -0.9148459681       -2.9261984146
 H        -5.1648480470       -2.5043108422       -2.8699146507
 H        -4.8404492231        0.9310076690       -5.0752457069
 H        -3.5036269454        0.1869781253       -5.9174028467
 H        -5.1313255934       -0.3763058801       -5.9889152134
 H        -4.3152733768       -2.4752317709       -7.4289709154
 H        -4.1003849453       -4.1691922401       -7.5767670048
 H         0.8717744707       -1.5514281844       -8.0619366927
 H         0.3458531781       -0.4717019493       -9.4804325234
 H        -0.6316004566       -1.8891887922      -10.6282273707
 H        -1.4072162589       -3.5459814767      -10.4217350772
 H         0.0410510795       -3.1722402103       -9.5743835885
 H        -3.4705760798       -2.2794133030      -10.1802561675
 H        -3.7279126672       -1.0502557461       -8.9242915918
 H        -2.6929964850       -0.7690622559      -10.3402018793
 H         0.2207918246        1.4516217005       -8.0180939031
 H         1.0770874954        0.6182148611       -6.7138994143
 H         2.0013182726        4.4848644467       -8.7529047551
 H         3.7702220840        4.4581733651       -8.9371475650
 H         2.7887325839        3.3268564693       -9.7029260729
 H         4.7466067281        0.0285846511       -6.8598842926
 H         3.2244239552        0.2979322105       -6.1525581094
 H         4.3624177174        1.5119199270       -5.9317854728
 H         5.3916137386        0.7114412339       -8.7742400792
 H         4.5164194399        1.7901599911      -10.0267264507
 H         5.2836700974        2.5372894211       -8.5343399392
 Na       -1.9233766153       -0.5598654797       -0.1530439767
