155

 C         1.0220405395       -8.1592998983       -1.2092182696
 C         1.8483760429       -7.9153902478       -0.0157044157
 C         3.0990108987       -7.0883016295        0.1034312876
 C         2.8373563963       -5.8147399814        1.0999716422
 C         2.5356526046       -6.1245602425        2.5175127522
 C         4.2281794634       -7.9001350448        0.8978859918
 C         3.8049503591       -6.4397632117       -1.2625701885
 O         1.4162796683       -8.3597670324        1.0015433184
 O         2.8476787051       -4.7127847661        0.5649727429
 C         1.0956124428       -5.6784491238        2.7806746472
 C         0.7707427537       -4.4486318737        3.6085412587
 C        -0.2128608579       -3.2479635068        3.2491488002
 C         0.7946544090       -2.0054836960        2.9775834638
 C         1.8924044756       -2.1858870451        1.8436744402
 O         1.5761745262       -4.1654548567        4.4940958567
 O         0.4825689628       -0.8938629689        3.3191535470
 C        -1.1682146461       -3.4188198635        1.9369127017
 C        -1.0685170884       -2.8638702291        4.4057861664
 C         2.8250373615       -1.0140133432        1.7035604568
 C         2.2593163204        0.1980790959        1.0278416128
 C         2.6596887837        1.7061602372        1.6572141553
 C         3.5646943362        2.3593194942        0.6184983488
 C         5.0220419596        2.6750576221        0.9061331792
 C         1.3109305123        2.4654038431        1.6853574298
 C         3.2342395352        1.6558740622        3.0476273510
 O         1.4466673272        0.0644404033        0.1005866574
 O         3.1128570116        2.7555663405       -0.4505634658
 C         5.6556923992        3.6039506900       -0.1305367988
 C         5.8140767270        2.7416964625       -1.5286466642
 C         6.0272768235        3.6066237549       -2.7847799553
 C         5.0478426783        3.1164250463       -3.8979495880
 C         5.5255291909        1.7277236673       -4.6096151791
 O         5.7490686270        1.5399122621       -1.5859567091
 O         4.1204063089        3.7305536548       -4.3399010885
 C         5.5003779074        5.0783310663       -2.5835621418
 C         7.5037771539        3.5615391181       -3.1521660794
 C         4.3405912709        1.1553026561       -5.2668692644
 C         3.1858456377        0.9403765323       -4.3237636388
 C         1.9460493120        0.3837345456       -5.0696852697
 C         0.6000085186        1.2736862752       -4.9743913006
 C         0.8067570876        2.8232639362       -5.2070768972
 C         2.1721834778        0.2462681146       -6.5956592738
 C         1.6123210938       -1.0223982879       -4.3298120189
 O         3.1486994496        1.2080257837       -3.1173635166
 O        -0.4784122584        0.8177906690       -4.8169742824
 C        -0.3606002654        3.5874873015       -4.6356152463
 C        -0.1520633222        3.7273568074       -3.1339884754
 C        -1.4941516734        3.6832180214       -2.2375945144
 C        -1.7574057321        2.1118236992       -2.2406279073
 C        -3.2458703083        1.5883853406       -2.2506561835
 O         0.9861858926        4.0689960766       -2.7735341526
 O        -0.8563317351        1.3202750428       -2.2377793060
 C        -1.3068190559        4.1667679577       -0.8313851969
 C        -2.4851550992        4.5770095740       -3.0237760726
 C        -4.1535358686        2.1517498201       -1.1120093657
 C        -3.8039275493        1.5479918509        0.2482584857
 C        -4.5739904535        1.8813400734        1.5051641721
 C        -6.1298089615        1.5037457050        1.4198559561
 C        -6.8465084773        0.5150835187        2.4067530855
 C        -4.0532010011        1.1356206840        2.7175134919
 C        -4.5297370633        3.4275087127        1.8587760617
 O        -2.8451691166        0.8184037538        0.3880351079
 O        -6.7290255702        1.8781580120        0.4457650260
 C        -8.3681508405        0.4723811581        2.1649609273
 C        -9.2250464435       -0.8868066749        2.6608952127
 C       -10.4155166618       -0.6769901758        3.6752469863
 C        -9.7786581750        0.2479327080        4.7903055599
 C        -8.6339511936       -0.3434223157        5.6757311261
 O        -8.9431898556       -1.9863847401        2.2654905116
 O       -10.2644436198        1.3268235597        5.0658960951
 C       -11.5766836983       -0.0589829961        2.9014308767
 C       -10.9246402182       -1.9750357812        4.4617641715
 H         0.2967432609       -8.8610911625       -1.2229595264
 H         0.5882949191       -7.1348994769       -1.5553329054
 H         1.6278230804       -8.4702728556       -2.0453625323
 H         2.5024903145       -7.2124195677        2.5444325010
 H         3.2038097662       -5.5165831028        3.2143334930
 H         3.7669137418       -8.7867640276        1.3891763788
 H         4.6313467615       -7.1644702431        1.6411437208
 H         5.0774454806       -8.1586909990        0.2664998142
 H         3.3801725067       -5.4919207505       -1.4432431592
 H         4.8281488350       -6.2334118494       -0.9551797030
 H         3.6921279089       -7.0665109647       -2.1306308635
 H         0.5016960647       -5.5795897505        1.8849939836
 H         0.5814997658       -6.4445456207        3.3485995083
 H         2.4534837472       -3.1082474119        1.9373813457
 H         1.3187962003       -2.2942084166        0.8891486573
 H        -1.9681052208       -2.6903811839        1.8252433614
 H        -1.5080571579       -4.4336080573        1.8907355970
 H        -0.4854333117       -3.2652255218        1.0056051492
 H        -1.8789602198       -3.6221633212        4.5836654287
 H        -0.5665891673       -2.7714612275        5.3332830411
 H        -1.5205262547       -1.9384308142        4.2113858895
 H         3.6396656098       -1.2668225125        0.9548579405
 H         3.2435766567       -0.8807311959        2.6964340850
 H         5.0483931525        3.1940055256        1.8488572785
 H         5.6001210504        1.7792796688        1.0277424539
 H         1.4040448332        3.5595816439        1.3918295491
 H         0.7747126060        2.4508809961        2.6496919189
 H         0.4874915898        2.1084274840        1.0793916221
 H         2.7141373508        0.9437143703        3.7094483057
 H         4.2649670694        1.4135678861        3.1016745682
 H         3.1707026539        2.5838522860        3.5401482496
 H         5.0401998334        4.4925018271       -0.2805157826
 H         6.6210178254        3.8476512585        0.2527038434
 H         6.2273788928        2.0569135608       -5.3956810324
 H         5.9548602172        1.0977876719       -3.8003029323
 H         5.8650248963        5.4873705894       -1.6909878072
 H         4.4495287144        4.9978396710       -2.6110420347
 H         5.6718258822        5.7090504165       -3.4921427463
 H         7.5138543832        3.6849515982       -4.2622018937
 H         8.1060262040        4.2501069177       -2.5612026787
 H         7.8183930431        2.5291168974       -3.0740517956
 H         4.6360594585        0.2502903370       -5.6862915669
 H         4.1003530189        1.6592393707       -6.1909126313
 H         1.7479706204        3.2213456534       -4.7409454694
 H         0.7410130320        2.9960882253       -6.3093635105
 H         2.8497178642       -0.4290092411       -6.9327665834
 H         2.4769409901        1.1770096159       -7.1034854725
 H         1.2190079245       -0.0817783343       -7.0609752813
 H         2.2596452396       -1.2665466358       -3.5527336275
 H         0.6493991145       -0.9414819170       -3.8243002900
 H         1.6236552185       -1.9118135884       -5.0291040429
 H        -0.3043291182        4.5677052455       -5.0842347731
 H        -1.3264261333        3.1590677913       -4.9331846203
 H        -3.5944016521        2.0048779242       -3.2534479538
 H        -3.2543893448        0.4511343306       -2.2956632201
 H        -0.7397792047        3.3704662677       -0.3959720578
 H        -2.1805082194        4.4179944678       -0.3113456069
 H        -0.7199447398        5.1116304305       -0.7610645858
 H        -3.3727018078        4.9562214508       -2.3743201299
 H        -2.1794582397        5.5095453594       -3.3727751821
 H        -2.9837533483        4.1641693193       -3.9445753535
 H        -5.2397819103        2.0066288604       -1.4486846550
 H        -4.0113483743        3.2782163892       -1.1348156301
 H        -6.4024761394       -0.4499277421        2.0727613380
 H        -6.6611225763        0.6239385256        3.4883435682
 H        -2.9664727974        1.1709930729        2.7207577196
 H        -4.3798876876        0.0933613073        2.7685444528
 H        -4.4205993260        1.5855874797        3.6632008532
 H        -3.6255072615        4.0117072066        1.5833587203
 H        -5.3800143704        3.9684118715        1.5386924742
 H        -4.3327618757        3.5053271832        2.9368114045
 H        -8.8770282435        1.2092401776        2.6900323036
 H        -8.6081661721        0.5490615197        1.1160634252
 H        -7.7353129030       -0.5864359077        4.9906055528
 H        -8.4098816620        0.3136511670        6.5109816446
 H        -9.0603950667       -1.2257294812        6.1837379668
 H       -11.2078756558        0.8338510802        2.4220411641
 H       -12.2821518433        0.2609419799        3.6434667870
 H       -11.9599203253       -0.7026214505        2.1623020624
 H       -11.9389884209       -1.9238872509        4.6317241137
 H       -10.8719129959       -2.8711333560        3.8259258527
 H       -10.4230656972       -2.1703811626        5.4132631509
 Na        1.2427709719        1.5335244380       -1.7231976332
