155

 C        -8.2300211133       -0.7220739275        6.6647987686
 C        -6.9960348217       -1.4177138521        6.0488950164
 C        -7.0696671780       -2.8652839359        5.7007200319
 C        -7.3280311127       -3.0757808912        4.1733078021
 C        -8.3079950350       -2.2670558733        3.3917952556
 C        -5.7107072438       -3.5306626085        6.0840864174
 C        -8.1972505246       -3.5959960013        6.3792665075
 O        -6.0347731937       -0.7377737216        5.6489113304
 O        -6.8560771826       -4.0506269825        3.6659055435
 C        -8.0862520095       -1.6599044444        1.9775110263
 C        -9.3905197145       -1.1558179764        1.5006466326
 C        -9.4541339442       -0.5963142076       -0.0488238736
 C        -8.5476268014        0.6849443002       -0.1996438504
 C        -9.2757097068        2.0080962139        0.1847017333
 O       -10.3893613208       -0.8639436769        2.1451723360
 O        -7.3579697834        0.6255375499       -0.2784691067
 C        -8.6925101192       -1.5313012465       -1.1013055725
 C       -10.9873941225       -0.3040338112       -0.4277303690
 C        -8.1539959199        3.0987509311        0.4722751125
 C        -7.1209437329        2.4800311517        1.3316866517
 C        -5.5743358131        2.9296006858        1.5098568405
 C        -4.9760092895        2.5768046451        0.1773891832
 C        -3.9014078285        1.4363295967        0.1431383374
 C        -5.7801757950        4.5564032341        1.4644475810
 C        -4.8393225170        2.4776210352        2.8170561146
 O        -7.5099790653        1.7141495679        2.2289263908
 O        -5.4000426818        2.9419372917       -0.8968193423
 C        -3.3142732653        0.9445268542       -1.1850822544
 C        -1.9310619742        0.2445582443       -1.1865856177
 C        -1.4067623588       -0.1784358525       -2.5614805887
 C        -0.0906279347        0.6075915453       -2.9191505615
 C        -0.1666348238        2.1542570198       -2.9369669634
 O        -1.1689268558        0.2628845281       -0.2426306854
 O         0.9516288045       -0.0047929299       -2.9950121209
 C        -1.2057964447       -1.6946411275       -2.4193812266
 C        -2.2350258455        0.1011636137       -3.9279001463
 C         1.2597109524        2.8128084877       -2.6349731147
 C         1.4748002899        3.0457797899       -1.0632931554
 C         2.5205063920        4.2250439050       -0.4521727157
 C         3.7561592879        3.3628880881        0.0551455435
 C         3.7940792056        3.1966531577        1.5805444045
 C         2.9284364911        5.2344487261       -1.4907499919
 C         1.8108856148        4.8337596584        0.7755901434
 O         0.8432369003        2.3529519768       -0.3097437946
 O         4.5805566650        2.9222339965       -0.7263281228
 C         5.0079278291        2.3748468547        2.1417683682
 C         5.0304553744        0.8414078207        1.5652351199
 C         4.2950119199       -0.3494443553        2.5764184777
 C         3.1484196384       -0.9701894936        1.6731692051
 C         3.3206811741       -2.1703278592        0.7646175939
 O         5.6301842824        0.5540045848        0.6062017599
 O         2.0880170689       -0.3933157921        1.7665585789
 C         5.4590209414       -1.2751691960        2.7493643480
 C         3.7587579019        0.2862662781        3.9586614607
 C         4.4870000311       -2.0821502858       -0.2987867068
 C         4.3331075401       -1.0980873393       -1.4036798103
 C         5.3256096893       -0.9214587515       -2.6998927468
 C         6.7525249152       -1.4566283498       -2.3651278817
 C         7.9005292244       -1.0625682939       -3.4293402769
 C         4.6147872964       -1.5573980888       -3.8935386279
 C         5.3864488897        0.5857030780       -2.8908488289
 O         3.2818063770       -0.5251357735       -1.3701079832
 O         7.0648392789       -2.0575801078       -1.3853690005
 C         9.0303524383       -2.1824893607       -3.5938103239
 C         8.2542066577       -3.4519318453       -4.0610949749
 C         9.0310085027       -4.6945563185       -4.4080520684
 C         9.8429504067       -4.2715069713       -5.6996077372
 C        11.2893831792       -4.7034388688       -5.8282058166
 O         7.0191056197       -3.3698644333       -4.1891742485
 O         9.2887061922       -3.5461646471       -6.5085188229
 C         9.9840967750       -5.2031736968       -3.3337956344
 C         8.0262651182       -5.8136910928       -4.7068884346
 H        -8.0139023820       -0.5448017853        7.7078340245
 H        -8.3814700553        0.1952049252        6.1350208375
 H        -9.1282451408       -1.2431419314        6.5023960919
 H        -9.2457031464       -2.8495390168        3.4118866804
 H        -8.6094213496       -1.3494577003        4.0689232391
 H        -5.6777674880       -4.5009160095        5.6852497406
 H        -5.5494452557       -3.3570334103        7.1405702128
 H        -4.8949481307       -3.0112504781        5.5634530099
 H        -7.9349492589       -3.8831000596        7.3558198289
 H        -9.1813376420       -3.0243730472        6.4102728179
 H        -8.3318957423       -4.5934661220        5.8784368289
 H        -7.4431239195       -0.7671503763        1.9349057617
 H        -7.4826596859       -2.4122167641        1.4848693473
 H       -10.1349081472        2.3554473088       -0.4310084268
 H        -9.8036338752        1.7115378065        1.1803281430
 H        -7.6387483177       -1.6032343746       -0.8324662531
 H        -8.8469551628       -1.2160634116       -2.1173879225
 H        -9.1718325918       -2.5683599741       -0.9737542855
 H       -11.3984780015        0.3918683794        0.2299636319
 H       -10.9760462875        0.1975398408       -1.3688799584
 H       -11.5903649271       -1.1606705554       -0.3786487633
 H        -8.3837494570        4.0483767912        1.0024524575
 H        -7.5936239390        3.4379335897       -0.4065517694
 H        -3.1156524860        1.5621624626        0.8553216985
 H        -4.4665946418        0.5939069408        0.6036851017
 H        -6.0614459874        4.8758808140        0.4389643223
 H        -4.8394120827        5.0380827275        1.7958682821
 H        -6.5683713951        4.8172363284        2.1553733645
 H        -4.1840993595        1.6334980240        2.6399311189
 H        -4.3379332025        3.3866245230        3.2037338941
 H        -5.5982231875        2.1100696952        3.5951771047
 H        -3.9232932693        0.3408307742       -1.9045811058
 H        -3.1581984829        1.8763767681       -1.8133303654
 H        -0.4485451957        2.4768587515       -3.9313183236
 H        -0.8819371129        2.5846997484       -2.1992382403
 H        -0.5726725548       -1.9085657401       -1.5436568103
 H        -0.6637516618       -2.1886778372       -3.2113343913
 H        -2.1369325700       -2.1763550001       -2.2859931094
 H        -1.6958963156        0.2096386113       -4.8473046621
 H        -2.8957723085       -0.7429940110       -4.1675794403
 H        -2.8088422009        1.0193652079       -3.9213059632
 H         1.3181019869        3.7225476174       -3.2142928089
 H         2.1126615554        2.2609170798       -2.9605487458
 H         4.0136233547        4.2682212675        1.8770544106
 H         2.9009392806        2.7322850057        1.8492746407
 H         3.3206198165        4.6339420072       -2.2681532267
 H         3.6050079843        5.9165636811       -1.0488384074
 H         2.0032071302        5.7230230980       -1.9066286223
 H         0.9043146255        5.4384143036        0.4040972854
 H         1.5346184808        4.0684437423        1.5393716082
 H         2.5659275247        5.5221981041        1.1845016278
 H         5.9676254948        2.7946653412        1.7819108308
 H         5.0230506270        2.4205872142        3.2672404182
 H         3.5872955990       -3.1095275877        1.2591031725
 H         2.3312094490       -2.2268129818        0.3512941432
 H         6.2486126406       -0.8881456124        3.3247415676
 H         5.9662790028       -1.4897338881        1.8471680535
 H         5.0838537838       -2.1692401555        3.2357446367
 H         3.5656956603       -0.4677793640        4.7479314010
 H         4.5559789574        0.8678748607        4.3982242529
 H         2.9078696902        0.9767259030        3.9864077185
 H         4.3037936643       -2.9455791481       -0.9803911233
 H         5.5369647150       -2.1719555704        0.0046754085
 H         7.3990331079       -0.9430809647       -4.4306859551
 H         8.2501625271       -0.1083880281       -3.0305826208
 H         4.2606411039       -2.5399157903       -3.6156592572
 H         5.2748544294       -1.6332969634       -4.7550773284
 H         3.6739516135       -0.9756666879       -4.1422156661
 H         5.9109335101        0.9809501627       -3.8184776589
 H         4.3122845554        0.9995719020       -3.0090240881
 H         5.7721427562        1.1579011250       -2.0641640366
 H         9.8353861179       -1.9555725573       -4.3213867752
 H         9.4031779074       -2.3128093390       -2.5659588594
 H        11.7118384025       -4.0732649712       -6.6216730474
 H        11.7893928830       -4.4838763184       -4.8959402482
 H        11.1588155554       -5.6750953306       -6.2165454040
 H         9.5207223219       -5.7048851086       -2.5063819917
 H        10.4950285544       -4.3603383967       -2.9596175078
 H        10.7771765592       -5.9045106528       -3.7218706916
 H         7.9010757906       -6.3428722268       -3.7557645144
 H         7.0829388629       -5.5873811252       -5.1862127564
 H         8.4595747745       -6.5428861391       -5.3734791335
 Na        1.0299763717        0.0205157149       -0.4813628476
