155

 C        -7.8976153157       -1.1093192457        6.8325168807
 C        -6.8824367490       -1.8901400757        5.9673802889
 C        -7.3118719145       -3.3127764776        5.5752685394
 C        -7.6516604933       -3.3029008347        4.0337004991
 C        -8.6922480204       -2.3768782795        3.4722512256
 C        -6.1131728031       -4.2547204261        5.8045298157
 C        -8.5283708228       -3.7683845412        6.3914758307
 O        -5.8151295103       -1.3412143310        5.5588360901
 O        -6.8952827232       -3.9177413128        3.3475776178
 C        -8.6022823127       -2.3736794104        1.9489914330
 C        -9.5705239185       -1.1872459586        1.4767477630
 C        -9.4077180605       -0.8663495095       -0.1038837013
 C        -8.4663177880        0.5079609213       -0.1164882041
 C        -9.1946443051        1.7407729325        0.4136764485
 O       -10.4047143620       -0.6601641311        2.1331987544
 O        -7.4250989677        0.5123027250       -0.7017974173
 C        -8.5965275952       -1.9188031546       -0.8249850400
 C       -10.8216432669       -0.6142203656       -0.7637739327
 C        -8.1652069336        3.0428030359        0.5093606990
 C        -6.9531333606        2.6243428139        1.4301102422
 C        -5.4932301044        3.3382832745        1.2670741302
 C        -4.8462719311        2.9226489539       -0.0681963435
 C        -4.1137932106        1.5320344400       -0.1677293240
 C        -5.7335883489        4.8037066558        1.2388209971
 C        -4.6286294059        3.0069410654        2.4843486228
 O        -7.1474343723        1.9690831890        2.4082228235
 O        -4.9934216951        3.6096202430       -1.0364067474
 C        -3.5168318543        1.1648457208       -1.4480707307
 C        -2.1151436828        0.2942969498       -1.3387487017
 C        -1.4703546661       -0.1220532612       -2.7083184387
 C        -0.2066431847        0.8505032483       -2.7281072743
 C        -0.3478456361        2.4209857718       -2.8413471070
 O        -1.5340419007        0.0725063915       -0.3094268409
 O         0.8773209669        0.2998801572       -2.7087706467
 C        -0.8891247359       -1.5612537259       -2.6324628916
 C        -2.3152593305        0.0917275523       -3.9141465019
 C         0.9064505665        3.1292552015       -2.4006401943
 C         1.3480721634        3.0320077451       -0.9404331645
 C         2.4023099086        4.0188213616       -0.3655661687
 C         3.5804670225        3.2162904083        0.2107680827
 C         3.6161542068        2.8916730519        1.7372985921
 C         3.0111172850        4.9624960364       -1.5419999655
 C         1.7504422043        5.0101944641        0.6500186311
 O         1.0153477437        2.1553425590       -0.2407024584
 O         4.4359143188        2.8365433186       -0.5069777033
 C         5.0265756695        2.2226110885        2.0886811780
 C         5.1464810938        0.7657336679        1.6225593361
 C         4.5328738565       -0.3648601020        2.5408608131
 C         3.3501735560       -0.8220296098        1.5982060568
 C         3.4572953319       -2.1332859909        0.8894384935
 O         5.5803610628        0.3633696678        0.5602051903
 O         2.3510529382       -0.1401550609        1.6278584074
 C         5.5445752133       -1.4435450478        2.9510893895
 C         3.9868066374        0.1898736891        3.7664230340
 C         4.3975396283       -2.1368908015       -0.3460056261
 C         4.2160268577       -0.9694398690       -1.2683089821
 C         5.2819879125       -0.7867848806       -2.4377139600
 C         6.6711188139       -1.3237826218       -2.1317154116
 C         7.7234711067       -1.0085140607       -3.2136450809
 C         4.6381524275       -1.4928559980       -3.7086798148
 C         5.3576801015        0.7044641057       -2.8410297245
 O         3.3306510956       -0.1899644427       -1.1699150700
 O         6.8948410814       -1.9939071168       -1.1325718609
 C         8.7362117458       -2.2008269509       -3.3617771321
 C         8.1608571414       -3.4248530428       -4.0134574310
 C         9.2044977161       -4.5119302083       -4.5139533599
 C        10.1401885341       -3.7533233481       -5.6667452688
 C        11.4778783534       -4.3447474507       -5.9117664071
 O         6.9970383575       -3.6811355992       -4.1433799083
 O         9.6116451631       -2.9635277346       -6.3546301688
 C         9.9941362289       -4.8652231622       -3.1950204440
 C         8.6615657580       -5.6956920207       -5.2750181258
 H        -7.8233826996       -1.5497436152        7.8408602659
 H        -7.6021494740       -0.0818658643        6.9146515950
 H        -8.8733979477       -1.1375178355        6.3426526927
 H        -9.7142498234       -2.4756326371        3.7848599439
 H        -8.4453523779       -1.2878099140        3.7557546732
 H        -6.1342032100       -5.1583499755        5.2466286133
 H        -6.0312479810       -4.4097935315        6.8743704998
 H        -5.2341314009       -3.6342250934        5.4995473718
 H        -8.4560455514       -3.4297388238        7.4031503999
 H        -9.5337454608       -3.4207035267        5.9829085686
 H        -8.5870550804       -4.8616180293        6.2887754032
 H        -7.5594200084       -2.3206373836        1.7163410234
 H        -8.9581569976       -3.3150374654        1.5184404312
 H        -9.9961476409        1.9526635672       -0.2444778909
 H        -9.5691514964        1.5238885678        1.4431261385
 H        -7.6141951472       -1.8978147728       -0.3585186147
 H        -8.5703943780       -1.6416744532       -1.8769655945
 H        -9.1302990342       -2.8663123304       -0.9409131862
 H       -11.4725877129       -0.0679653903       -0.0704059154
 H       -10.5647458019       -0.0376868851       -1.6741973244
 H       -11.3457360797       -1.4696475265       -1.1749728648
 H        -8.5619024007        3.8728622734        1.1771598185
 H        -7.8074404272        3.3800589563       -0.4657095853
 H        -3.3202469248        1.5565385902        0.5916763343
 H        -4.7576635373        0.7339067495        0.2653010712
 H        -6.5652750911        4.9573640604        0.5796749724
 H        -4.8284043379        5.3586146791        0.9257684575
 H        -6.0671357545        5.1241917880        2.2088414619
 H        -5.0790423571        2.3991811042        3.2507905908
 H        -3.7002569452        2.5061748751        2.2027152893
 H        -4.2489914688        3.9975167289        2.8575185195
 H        -4.2837560383        0.5327839593       -1.9765695771
 H        -3.2947385373        2.0936599290       -2.0831407008
 H        -0.6352811715        2.6400574975       -3.8977861581
 H        -1.2148544088        2.6823043527       -2.1429168942
 H        -0.4230686234       -1.8705333912       -1.6736078468
 H        -0.1068031902       -1.6117607675       -3.3724428790
 H        -1.6053293857       -2.3133191773       -2.9132140125
 H        -1.9881522227       -0.4457030947       -4.8203899791
 H        -3.3311874895       -0.3095354292       -3.8053888242
 H        -2.3698444534        1.1555112540       -4.1627164652
 H         1.0349010643        4.1590686687       -2.7662183237
 H         1.6354004352        2.5268351078       -2.9775519739
 H         3.7038023766        3.8609856641        2.2906984396
 H         2.8186996640        2.2764489076        1.9714006452
 H         3.7367921477        4.4059853569       -2.1336791936
 H         3.6207198842        5.7695267963       -1.0736961123
 H         2.1519384836        5.4391062940       -2.0023776881
 H         0.8789458171        5.5082569941        0.2402092765
 H         1.5786480925        4.3718348794        1.5957307103
 H         2.4956626238        5.7738508029        0.9430830478
 H         5.7875314114        2.7784216978        1.4407769144
 H         5.3032782269        2.3712429024        3.1236310206
 H         3.7909575000       -2.8631518179        1.6696084434
 H         2.4235074918       -2.4244531243        0.7072608805
 H         6.2861365038       -1.1354021285        3.6806420761
 H         6.1252569359       -1.8031013677        2.0604909897
 H         5.1179682310       -2.2805295747        3.5329831889
 H         3.3411156670       -0.4798561258        4.3984375635
 H         4.7095400083        0.6357953819        4.4766049537
 H         3.1784386201        0.8858515888        3.5118519412
 H         4.5627083262       -3.0575611736       -0.8818895267
 H         5.4019982732       -1.7821790434       -0.1829166421
 H         7.1942596323       -0.9508072494       -4.1808290140
 H         8.3131686730       -0.1662855732       -2.9842845451
 H         4.7620890864       -2.5461313794       -3.6626509885
 H         5.1340403455       -1.1931317021       -4.6099683209
 H         3.5752796383       -1.2072856982       -3.7341325604
 H         6.0117604888        0.9717909008       -3.7307345877
 H         4.4016831736        1.0478458289       -3.3407468278
 H         5.5837801634        1.2789370297       -1.9873115826
 H         9.5740875291       -1.7977049632       -4.0115877751
 H         9.1395193413       -2.5303348301       -2.3714006863
 H        11.2991353040       -5.4503406413       -6.0057940662
 H        11.9191729992       -3.8166226570       -6.7828389575
 H        12.0087914917       -4.2421063246       -4.9710928001
 H         9.3137431605       -5.0155531844       -2.3148630673
 H        10.6084664841       -4.0258061127       -2.8274593107
 H        10.6403940639       -5.7869256161       -3.2952514637
 H         7.8831733160       -6.3643381770       -4.7897831263
 H         8.0607775814       -5.3396232707       -6.1757100145
 H         9.5476901522       -6.3772806076       -5.5384049042
 Na        0.9655812293       -0.2407051936       -0.1649297161
