155

 C         1.1722911746       -7.9406906616       -1.2091023589
 C         1.8491565675       -7.8595785358        0.1595095785
 C         3.1812165632       -7.1793690900        0.1796875398
 C         2.7817397941       -5.7818480634        0.8560400113
 C         2.4555836068       -5.8850193433        2.4813373260
 C         4.1513519259       -8.0386624236        0.9818283445
 C         3.7936330960       -6.8864764308       -1.1752014839
 O         1.2345855218       -8.2491980006        1.1722279668
 O         2.7513319894       -4.6718271691        0.3863585437
 C         0.9282802732       -5.5157101095        2.6659518423
 C         0.7823485594       -4.2919145474        3.5156021734
 C        -0.1794275903       -3.1801684639        3.0513535310
 C         0.7667744153       -1.8992938494        2.6694853898
 C         1.7267749273       -2.2014709800        1.5276391906
 O         1.4716088656       -4.2415822621        4.4985610077
 O         0.6985563035       -0.7958979249        3.1536904549
 C        -1.0825779203       -3.6207482889        1.9009998514
 C        -0.9288287024       -2.8562986398        4.4267572766
 C         2.8286182535       -1.0939132821        1.6404367228
 C         2.2210796089        0.2023457582        1.0124963986
 C         2.5462299782        1.6101758848        1.5621981277
 C         3.5395904721        2.1886751034        0.4833834837
 C         4.8751711535        2.6350226776        0.9372428227
 C         1.2016110778        2.4797497168        1.6453099347
 C         3.1171997717        1.5435373709        2.9828356783
 O         1.6309746855        0.0833335862       -0.0425661658
 O         3.1953631925        2.4783531075       -0.6326663346
 C         5.6859721890        3.4192263421       -0.1166327708
 C         5.8234559461        2.7633234372       -1.4433499315
 C         5.9941029621        3.5944472283       -2.7859900144
 C         5.0831302889        3.0311073143       -3.8845751690
 C         5.5120348217        1.6605331161       -4.5073991692
 O         5.9837045049        1.5411630138       -1.5643165032
 O         4.0256143583        3.5912480239       -4.1461624771
 C         5.8987328998        5.2151833528       -2.5839660548
 C         7.5345311126        3.3941926331       -3.2592809257
 C         4.3926032760        1.0614399088       -5.3266016604
 C         3.0496591382        0.9356733449       -4.5522854416
 C         1.8469982716        0.3846944520       -5.2318879887
 C         0.5716941815        1.4125454340       -4.9807631564
 C         0.8957184323        2.8472601762       -5.3546614028
 C         1.9218315245        0.1101081213       -6.7190517959
 C         1.4141286341       -1.0079103896       -4.6704861080
 O         3.0021916300        1.2467580986       -3.3796759554
 O        -0.4992942053        0.9952972995       -4.6132864776
 C        -0.1908096854        3.7867063498       -4.7970360983
 C        -0.2354679011        3.8513203049       -3.2293870047
 C        -1.5356564668        3.6074513682       -2.4450466210
 C        -1.9897973864        2.1335268207       -2.2721953445
 C        -3.4694565050        1.7345295186       -2.2459444565
 O         0.7639680572        4.1952275553       -2.6667510575
 O        -1.0710547201        1.3437871937       -1.9368896381
 C        -1.1509861213        3.9800658086       -0.9165315268
 C        -2.7412743259        4.5196669628       -2.8275924025
 C        -4.2863124838        2.1430252649       -1.0031377046
 C        -3.8542165444        1.5465785915        0.3293267121
 C        -4.5955706946        1.7896997783        1.6681949276
 C        -6.1296264845        1.4429410095        1.4939340357
 C        -6.7726539096        0.2960953593        2.2746105109
 C        -3.8190836803        1.0934856276        2.8617866513
 C        -4.7374731996        3.2879618312        2.0172422222
 O        -3.0001432752        0.6698294915        0.3728263039
 O        -6.8304594169        2.0768313811        0.7045172555
 C        -8.3167950628        0.4383494855        2.3350270892
 C        -8.9546861311       -0.8578666136        2.9526140134
 C       -10.1079464289       -0.6123021529        3.8670491348
 C        -9.7089949413        0.3773226586        5.0435513521
 C        -8.5736452041       -0.0940354839        5.9131641242
 O        -8.5792734834       -1.9560342126        2.5618413008
 O       -10.3306011717        1.4013983714        5.1820989930
 C       -11.2257557691        0.1285792457        2.9702605672
 C       -10.7124014380       -1.9735649838        4.2547092134
 H         0.4482644795       -8.8315642124       -1.0954812561
 H         0.5859667831       -7.1095704569       -1.4874223415
 H         1.6668712126       -8.3237475237       -2.1026211385
 H         2.4600309473       -6.9737132684        2.6396696074
 H         2.9886722148       -5.1876759997        3.0915982356
 H         3.6131249489       -8.4240412217        1.8221362685
 H         5.0014556489       -7.4449201357        1.2894569430
 H         4.5856450750       -8.8511154115        0.3585655603
 H         3.2900831110       -5.9699385261       -1.5568345726
 H         4.7987241564       -6.5147143687       -0.9609813471
 H         3.6377992581       -7.7450264769       -1.8472885239
 H         0.3866100069       -5.4133604235        1.6994187382
 H         0.3650275831       -6.3916424048        3.1613967586
 H         2.1161223770       -3.2452519346        1.5213030744
 H         1.2203730254       -2.1462898082        0.5831184770
 H        -1.6542784274       -2.7127128390        1.6204302999
 H        -1.8672048735       -4.3420740375        2.3049486044
 H        -0.6143642144       -3.9478555772        1.0391978408
 H        -1.8587031220       -3.3327616989        4.5298297733
 H        -0.3814410320       -3.1704173541        5.3361725995
 H        -1.0818793947       -1.7396123418        4.5060465469
 H         3.7129319581       -1.3473154736        1.0772885628
 H         3.0075350383       -1.0585221355        2.7711664735
 H         4.7578986706        3.3563543818        1.7859005530
 H         5.3443564635        1.7096976893        1.3785506832
 H         1.2634016893        3.4977227496        1.7105729640
 H         0.5913210071        2.1176566632        2.4326116555
 H         0.5324690470        2.3787893376        0.7641298806
 H         2.3665414273        1.2264302241        3.6808426063
 H         3.9700346197        0.8164268137        3.0144074973
 H         3.6443078690        2.4563252270        3.3928349736
 H         5.2898906801        4.4583915411       -0.2218642855
 H         6.7238666075        3.3486438427        0.3063235803
 H         6.4227574917        1.7987450076       -5.0503159899
 H         5.6569808836        1.1068969594       -3.6068316357
 H         6.8152428893        5.5953849916       -2.0675981488
 H         4.9592033545        5.5165215495       -2.0361505225
 H         5.7080705625        5.5874381998       -3.5422292696
 H         7.6742300452        3.4905899207       -4.2983799662
 H         8.1421005491        4.0705437075       -2.6681493732
 H         7.8081494956        2.3849597623       -2.9867999442
 H         4.8300579098        0.1687415912       -5.9370651271
 H         4.1398399981        1.6064989385       -6.2586544724
 H         1.7911723489        3.1378081951       -4.8211749288
 H         1.0144397876        2.8326662757       -6.4394664301
 H         2.8161518630       -0.5467027198       -7.1109924401
 H         2.0963942456        1.0153205650       -7.3504613755
 H         1.0165960995       -0.3883305881       -7.0549341645
 H         1.2242871742       -1.0878834557       -3.5543680895
 H         0.4573134294       -1.2608698708       -5.1204518964
 H         2.1095776576       -1.7406493956       -4.9689841777
 H        -0.0208195569        4.7870925792       -5.2116911620
 H        -1.1773862899        3.5410938072       -5.1972572661
 H        -3.8891222698        2.1327916757       -3.1512853902
 H        -3.5602627921        0.6626908885       -2.3370065237
 H        -0.4794971967        3.2061392339       -0.5918697143
 H        -2.0783771510        4.0216446083       -0.3130959388
 H        -0.7507459232        4.9566034325       -0.7964810576
 H        -3.5941928022        4.4123427129       -2.2253031636
 H        -2.5753203259        5.6256540258       -3.0112868148
 H        -3.2534969789        4.2230518834       -3.7846925886
 H        -5.2404615479        1.7423236308       -1.2216813379
 H        -4.4038771049        3.1964915939       -0.9927189241
 H        -6.4686535028       -0.6675258680        1.7985062424
 H        -6.3627039779        0.3038625563        3.3130454561
 H        -2.8905185563        1.6624487794        3.0856386666
 H        -3.4791471737        0.0734801832        2.6386939262
 H        -4.5381822084        0.9441846657        3.6704281664
 H        -3.9292189593        3.6999129579        2.5576838303
 H        -4.8029489801        3.8728364362        1.0797642611
 H        -5.5910801664        3.4782497865        2.6500933924
 H        -8.7810216560        1.3644613088        2.8372858528
 H        -8.6394907198        0.5368572752        1.2468698779
 H        -7.7749019928       -0.3360839807        5.2911547174
 H        -8.3348106107        0.6715363572        6.6396751582
 H        -8.9215359533       -0.9370183738        6.4935258200
 H       -11.0565479236        1.1751894027        2.8064461509
 H       -12.2101321399       -0.0030332775        3.4234960422
 H       -11.2229653501       -0.4032699206        2.0012947789
 H       -11.5995896877       -1.8709761599        4.9583236595
 H       -11.1340710454       -2.5158938275        3.4147151074
 H        -9.9607815289       -2.6597056577        4.6549050914
 Na        1.4909313115        1.7801111835       -1.6543324755
