155

 C        -6.8258682473       -2.5472680783        6.8641739838
 C        -6.7155045959       -3.6853121043        5.8956375904
 C        -8.0497575585       -4.2219667072        5.2621400510
 C        -7.9220896335       -3.9450518726        3.7218214380
 C        -9.3332981554       -3.4217263830        3.0560654862
 C        -7.8251525715       -5.7733432867        5.2987173311
 C        -9.3962892614       -3.9814023378        5.8815357483
 O        -5.6555225446       -4.2049197528        5.5906933761
 O        -7.0508655864       -4.3226195579        3.0302423034
 C        -8.9642980435       -2.9732212507        1.5629379642
 C        -9.1900918258       -1.5657952053        1.2571000676
 C        -9.0843735103       -0.9942298510       -0.1841395444
 C        -7.9600790491        0.0814346239       -0.1454401921
 C        -8.3284491631        1.5065064918        0.1300371365
 O        -9.5306692822       -0.7692725292        2.0884166688
 O        -6.8407009264       -0.2535927240       -0.4359766523
 C        -8.5073464753       -2.1261745146       -1.1957386129
 C       -10.4766635902       -0.4313090771       -0.5658795323
 C        -7.0916206747        2.3917678330       -0.2078889610
 C        -6.2975753196        3.0400626768        0.9618956934
 C        -4.8567485759        3.4509954461        0.5054220361
 C        -3.8317746550        2.2644180381        0.1519097260
 C        -4.1455440104        0.7500014208        0.6042686697
 C        -4.9355611449        4.4564939574       -0.6699055936
 C        -4.0354264963        4.0723753030        1.6645823672
 O        -6.8482785864        3.1409481862        2.0075255616
 O        -2.7681371374        2.4764520919       -0.3271801425
 C        -3.6404367740       -0.1628843400       -0.6144899437
 C        -2.2335669439        0.0860110653       -1.0504434214
 C        -1.9159373723        0.5300204942       -2.5710550577
 C        -0.5111351115        1.3751328399       -2.5878711772
 C        -0.2611062758        2.8907590392       -2.5912158615
 O        -1.3563855877       -0.2056544076       -0.1917173219
 O         0.4958187000        0.7289722800       -2.6300041940
 C        -1.7392659117       -0.7057404062       -3.4459410541
 C        -3.0076975099        1.4335437017       -3.1288272458
 C         1.2173123909        3.3792509300       -2.2742845920
 C         1.4276266131        3.7166684048       -0.7755185572
 C         2.5175862648        4.7732804254       -0.1289696005
 C         3.8649640755        3.8888083122        0.3318051223
 C         3.6473161082        2.4652684172        0.9549861251
 C         2.9158711597        5.9338172744       -1.0414511975
 C         1.8606960150        5.3238588949        1.1324712715
 O         0.9248570828        2.9811767936        0.0432112584
 O         5.0073903280        4.2838711093        0.0663817515
 C         4.6372436569        1.9370381053        2.0269281649
 C         4.6197489150        0.3975892335        1.9620435387
 C         3.8509813447       -0.5674570530        2.7481929492
 C         2.5231341054       -0.7491394779        1.7357008947
 C         2.5173481828       -2.0205958519        0.7864402764
 O         5.3748472497       -0.0611552230        1.0235873432
 O         1.6628146222        0.1164252296        1.7661247218
 C         4.4919245871       -1.9499352778        3.2140987059
 C         3.2212625090        0.0752656942        4.0898046070
 C         3.6101435082       -2.0266873410       -0.2604268178
 C         3.6975776168       -0.8977587254       -1.2400073658
 C         4.6155448508       -1.1258425324       -2.4488833508
 C         6.0411169472       -1.6203669681       -2.0992913830
 C         7.2054119369       -0.9330076818       -2.7399149196
 C         4.0778083312       -2.4287344126       -3.2805013803
 C         4.6118950738        0.2135382725       -3.3762602124
 O         3.0918469552        0.1373472247       -1.1810239307
 O         6.1814825715       -2.5449369022       -1.3130010362
 C         8.3533488288       -1.9483646480       -2.9412936037
 C         8.4902437050       -2.7802410491       -4.1660712095
 C         9.8413284274       -3.5672165696       -4.3349654239
 C        10.7757470923       -2.5772424842       -5.1199064113
 C        11.1581913258       -2.7470858205       -6.6458107062
 O         7.6414882008       -2.9359361729       -5.0579064035
 O        11.2733819097       -1.6933696108       -4.5043834634
 C        10.6673120179       -3.8032793628       -3.0352984586
 C         9.6740977169       -4.9085689484       -5.1057378878
 H        -7.1020350010       -3.1226427679        7.7912960134
 H        -5.8539485573       -2.0642588509        6.9358207897
 H        -7.6255716913       -1.8500081450        6.5665520260
 H       -10.1521422761       -4.1439664854        3.0288093545
 H        -9.7779055172       -2.5286274492        3.5382809735
 H        -8.5497855371       -6.2467715323        4.6705683959
 H        -7.6921696726       -6.0864515004        6.3430131738
 H        -6.8457397861       -6.0053719982        4.8078567345
 H        -9.3534222646       -4.1659983102        6.8882021330
 H        -9.7870906456       -2.9801935999        5.8185620069
 H       -10.1189135587       -4.6520620590        5.4171815829
 H        -7.9592412978       -3.3323405426        1.3109797384
 H        -9.5975551187       -3.5597824069        0.9571165984
 H        -9.2156166608        1.7860592352       -0.3940172529
 H        -8.6084278479        1.6875788256        1.1982959016
 H        -7.5490196633       -2.3129703149       -0.7202144560
 H        -8.4825926449       -1.7342850588       -2.1806393568
 H        -9.1809901019       -3.0128587583       -1.2665300401
 H       -10.7702856855        0.2390347498        0.2649310330
 H       -10.3850095644        0.3582400062       -1.3794717631
 H       -11.2039236472       -1.2318501710       -0.8291883004
 H        -7.3519391808        3.2632253070       -0.7958993096
 H        -6.3841628398        1.9000154528       -0.9582510151
 H        -3.6451482381        0.5535320507        1.5322887458
 H        -5.2141648794        0.4441408435        0.6313898686
 H        -5.4873276630        3.9873043356       -1.5251561389
 H        -3.9757672343        4.8196086421       -1.0590192412
 H        -5.5673118437        5.3033740264       -0.4665617245
 H        -4.4751189597        3.8565886609        2.5955737895
 H        -3.0738986229        3.6686415579        1.8019481886
 H        -3.9307480404        5.1615559210        1.6203186659
 H        -3.9167554567       -1.2152801425       -0.3086256104
 H        -4.3880281336        0.0553176512       -1.3841549008
 H        -0.5698939558        3.3931955305       -3.5564975808
 H        -0.9480721023        3.3580976560       -1.8088384040
 H        -0.7718396690       -1.1841870196       -3.2395639851
 H        -1.7286807212       -0.4766770579       -4.5156593987
 H        -2.5722008589       -1.2952369548       -3.1633680002
 H        -2.8565706169        1.5337740951       -4.1822634260
 H        -4.0070366727        0.9635284502       -3.0820152140
 H        -2.8980720981        2.3658336997       -2.5851284488
 H         1.3959895579        4.2266892194       -2.9617893101
 H         1.8998237001        2.5155258312       -2.5324121029
 H         2.5705561256        2.3941441527        1.2050791667
 H         3.5670536804        1.6666546554        0.1973172255
 H         2.8010907959        5.7238055420       -2.1136070842
 H         3.9811741176        6.2687854967       -0.9137542976
 H         2.2948923254        6.8150820057       -0.9144612996
 H         0.9671241367        5.7663954546        0.9096657070
 H         1.8428575422        4.6787282385        2.0227850454
 H         2.5107995768        6.0884684426        1.5079439281
 H         5.5891548617        2.2606591583        1.6775294540
 H         4.4056600142        2.4273345792        3.0193979316
 H         2.4622266952       -2.9218616979        1.4257090654
 H         1.5712837842       -1.9598345181        0.2060354781
 H         4.7630162804       -1.8471605773        4.2425006444
 H         5.3587339310       -2.2314851158        2.6192373056
 H         3.8194260670       -2.8218036338        3.2321148122
 H         2.7995594056       -0.7241521705        4.6835147159
 H         3.9033008483        0.6814490781        4.6297027284
 H         2.3754048545        0.5879738572        3.7064669550
 H         3.6006698341       -2.9939239428       -0.6817386559
 H         4.5966177767       -1.9578050597        0.2442855817
 H         6.9155855432       -0.4522307335       -3.6323527595
 H         7.4244499085       -0.1098750053       -2.0605549296
 H         4.3966006089       -3.3421863384       -2.7916010108
 H         4.5367862258       -2.2985660110       -4.2590330681
 H         2.9507506760       -2.3977917256       -3.3863388608
 H         4.9744678707       -0.0677249649       -4.3805175859
 H         3.5435076383        0.4042258431       -3.5751725649
 H         5.1544330236        0.9758125454       -2.8997863962
 H         9.3041576841       -1.4034975294       -2.9866380606
 H         8.4552332559       -2.4937461534       -1.9726010757
 H        12.1201816645       -3.2723460782       -6.5938209023
 H        10.5268580098       -3.3378416343       -7.3538798695
 H        11.4002388085       -1.7787806779       -7.0057801854
 H        10.1601702233       -4.2212964350       -2.2275514603
 H        11.0153871644       -2.8941009788       -2.6940500607
 H        11.4990335652       -4.4378572921       -3.3232564391
 H        10.4064334904       -5.0776899563       -5.8283344643
 H         9.6409939126       -5.7758736425       -4.4954078432
 H         8.7202235503       -4.7919036841       -5.6212297003
 Na        0.8791339413        0.6063276129       -0.3439659765
