155

 C        -6.6255961768       -3.1042549341        6.3008077809
 C        -6.8181403536       -4.5316621570        5.8068546524
 C        -8.2084527673       -4.7783695742        4.9940644614
 C        -8.0030605946       -4.3057545616        3.5692632104
 C        -9.0995049241       -3.3245007171        2.9999545684
 C        -8.4465770858       -6.2690118048        4.8735938177
 C        -9.4699697873       -4.1837336208        5.8021114631
 O        -6.0884337370       -5.4511629580        5.9782769941
 O        -7.0429251281       -4.6681639808        2.8676982268
 C        -8.7620531159       -3.0213989635        1.5177847304
 C        -8.8189146521       -1.4615117762        1.2565861517
 C        -8.9377002115       -0.9540852318       -0.2967813790
 C        -7.7516115842        0.0040445517       -0.5436751253
 C        -7.9124548544        1.5581575302       -0.3851997294
 O        -8.8344777230       -0.7419221877        2.2092336176
 O        -6.6833512840       -0.4911724972       -0.9194584067
 C        -8.9527807722       -2.1508976541       -1.3452293279
 C       -10.3263246444       -0.3127879627       -0.2597767975
 C        -6.6825373425        2.3420529951       -0.5268691512
 C        -6.0379063900        2.8534566035        0.7391281901
 C        -4.6103006182        3.4278660122        0.6030290893
 C        -3.5961723657        2.2641061603        0.3324225519
 C        -4.0072136100        0.8177303298        0.4765468844
 C        -4.6370849954        4.3959812330       -0.5524779919
 C        -4.2333348714        4.1604832906        1.8709677961
 O        -6.6580413390        2.8354346473        1.7248703231
 O        -2.3995531291        2.4240909174        0.0396535991
 C        -3.6726873860       -0.0867602747       -0.6666703428
 C        -2.2014412655        0.1488011714       -1.0898779244
 C        -1.9787197052        0.8409581269       -2.5341457859
 C        -0.6184431630        1.6475503524       -2.6007382081
 C        -0.5364227261        3.1702905252       -2.2367926201
 O        -1.3096341728       -0.1547331670       -0.4188685170
 O         0.3903853486        1.0598879508       -2.8598438747
 C        -1.6358216397       -0.3428376710       -3.5003619022
 C        -3.1351121630        1.7593365734       -3.0123029878
 C         0.8870914214        3.7966627689       -1.9725823009
 C         1.3242135621        3.7193687051       -0.4707860524
 C         2.3717742574        4.6068791823        0.0541211580
 C         3.5875320641        3.8394317322        0.7633710298
 C         3.6395503877        2.3336356070        0.7323003272
 C         3.0617267991        5.3975357968       -1.1199730256
 C         1.7729632391        5.5759709075        1.1010149201
 O         0.8115793693        2.8239599628        0.2377664921
 O         4.6278699895        4.4606154894        1.0403870377
 C         4.8774913612        1.7702078177        1.3733798651
 C         4.8344424760        0.2085671937        1.6698231953
 C         3.6380613718       -0.3357325724        2.6724692342
 C         2.2957821419       -0.6064564376        1.8888122298
 C         2.3192453737       -1.8850134806        0.8542734948
 O         5.7555207034       -0.5761401770        1.3744474960
 O         1.3487137631        0.1978331512        1.8490264628
 C         4.1166950326       -1.6387385814        3.4595630397
 C         3.4598529994        0.8828483098        3.6264342427
 C         3.5037727300       -2.0797298988       -0.1877468761
 C         3.5724295818       -1.1426229014       -1.3116532397
 C         4.3260341201       -1.5721851948       -2.5654259226
 C         5.8480136827       -1.8931701975       -2.1102010432
 C         6.9754772736       -0.9852234674       -2.5249659747
 C         3.8768353208       -2.9670794981       -3.1825290825
 C         4.1610993973       -0.4572238720       -3.6880233870
 O         2.9506034763       -0.0505211636       -1.3884165178
 O         5.9767021171       -2.8950229767       -1.4031428346
 C         8.3501905585       -1.6214331299       -2.5870151579
 C         8.6572492177       -2.1257903947       -3.9851277525
 C        10.1145127624       -2.9712584914       -4.0455233426
 C        11.0529589140       -2.0436453032       -4.9614224140
 C        10.5346227450       -1.4816788548       -6.2483065083
 O         7.9727862431       -1.9809738442       -4.9226552256
 O        12.1022638947       -1.7581234600       -4.4952553109
 C        10.7368241919       -3.3366421840       -2.6733809079
 C         9.6656015486       -4.3231252816       -4.8020356811
 H        -5.7496410659       -3.1479166448        6.9542900530
 H        -6.4368509652       -2.4453065066        5.3983391057
 H        -7.5927782689       -2.7704684856        6.6907572207
 H       -10.0725181895       -3.8840900363        3.0872366847
 H        -9.1266576550       -2.3188753072        3.4917487758
 H        -9.5650438086       -6.5293726447        4.8074718629
 H        -8.1953697362       -6.7504404517        5.8328402544
 H        -7.8928082694       -6.7085895889        4.0810014636
 H        -9.5931224983       -4.6029734463        6.7749102136
 H        -9.5107052417       -3.1226452855        5.8817569390
 H       -10.4318588192       -4.4065996902        5.3183375688
 H        -7.7550308361       -3.2433678675        1.3318841499
 H        -9.2880807177       -3.7962836374        0.9304622836
 H        -8.7632790237        1.8474318612       -1.1762668686
 H        -8.3789196154        1.9824026452        0.5626499417
 H        -7.9645175590       -2.6216305315       -1.3371398703
 H        -9.0356373685       -1.7318744065       -2.3403478605
 H        -9.8016749201       -2.8163449174       -1.0239754141
 H       -10.7118259967        0.0971584802        0.6762474298
 H       -10.5709650792        0.2278346487       -1.2008212717
 H       -11.0919019890       -1.1422546982       -0.4065055900
 H        -6.9295721737        3.1537095490       -1.2546093069
 H        -6.0151477027        1.7930413349       -1.1671452516
 H        -3.4061207399        0.3415136184        1.2929770799
 H        -5.0344671277        0.8615992454        0.7603658410
 H        -5.1334724802        3.8946299344       -1.4068284066
 H        -3.6543953782        4.6015245632       -0.9844319817
 H        -5.1560345087        5.3487525127       -0.3129720828
 H        -3.3647731918        4.8166067322        1.7294239176
 H        -5.0614626097        4.8077693323        2.1158944017
 H        -4.0340803974        3.5636641775        2.7022550644
 H        -3.7061418227       -1.1187068509       -0.3420658391
 H        -4.4294640447        0.0094053103       -1.5286418316
 H        -0.8983821110        3.7011328514       -3.1805548001
 H        -1.1839823270        3.4949244411       -1.3979848457
 H        -0.7096868890       -0.6744624673       -3.0993548799
 H        -1.6466463517       -0.0026771980       -4.5406936561
 H        -2.3038158100       -1.1918085165       -3.3255243806
 H        -2.9967857631        1.9643781568       -4.0590571576
 H        -4.0574144996        1.3198418851       -2.7211147246
 H        -3.0508661993        2.6677738670       -2.3896291908
 H         0.7963326814        4.8519192498       -2.3110842263
 H         1.6442017838        3.3298366938       -2.6436691288
 H         2.7816491699        1.8800956631        1.1876779733
 H         3.5096826043        2.0099051452       -0.3558074866
 H         3.2509940688        4.8018865199       -2.0178092140
 H         4.0417009348        5.7299009389       -0.8376468290
 H         2.5430468583        6.4027970947       -1.4202385483
 H         0.8985645202        6.1561002980        0.6385752293
 H         1.2930970394        5.0144743608        1.9314389162
 H         2.4055791736        6.3457409437        1.4647794084
 H         5.7482231494        2.0276241302        0.7201814052
 H         5.1320010463        2.2517787995        2.3246413768
 H         2.0814466932       -2.7094066776        1.5408958715
 H         1.4572750278       -1.8886437463        0.1758902222
 H         4.8065126598       -1.4081308943        4.3129126066
 H         4.6366324777       -2.3529243601        2.8454688753
 H         3.2294164816       -2.1427482572        3.8790366636
 H         2.8228543291        0.5971069593        4.4261703246
 H         4.4410090784        1.1495333504        3.9374517462
 H         2.9799792758        1.6599112134        3.0084309103
 H         3.2431376403       -3.1452543863       -0.5489818886
 H         4.4492825176       -2.1129822968        0.3155503010
 H         6.6698524406       -0.7126723257       -3.5432798614
 H         7.1457394714       -0.0868919531       -1.9327117965
 H         3.9530708154       -3.8119611105       -2.4566264577
 H         4.5526403698       -3.2463617282       -4.0157543312
 H         2.8719388367       -2.7930238040       -3.5334877835
 H         4.6996625251       -0.9698015046       -4.5463564915
 H         3.0499400742       -0.3470809897       -3.8750879272
 H         4.5143339214        0.4779558777       -3.3327510812
 H         9.0342746337       -0.7772905320       -2.3018808244
 H         8.4933448320       -2.4285188516       -1.8509807117
 H        10.1014270754       -2.2188880397       -6.9262040194
 H         9.8799437019       -0.6712509165       -5.9512487033
 H        11.3772824797       -1.0983665543       -6.8148249679
 H        10.2233125320       -3.9842560423       -2.0217483151
 H        11.0578303969       -2.4594381356       -2.1852474740
 H        11.6541122008       -3.8868101815       -2.9447194407
 H        10.4654982458       -4.6578611798       -5.4663702180
 H         9.5034361310       -5.1222584189       -4.1133512256
 H         8.8518579034       -4.1459405920       -5.4359070989
 Na        0.8833313628        0.5192699834       -0.6572350129
