155

 C        -6.1140239945       -6.6777023046        4.9701352196
 C        -7.4404039880       -5.7758553914        5.1689904984
 C        -8.4761675822       -5.5219529781        4.1181997440
 C        -7.6817434131       -4.7927088222        2.8835787136
 C        -7.9042121050       -3.3586716115        2.5934287122
 C        -9.0838332031       -6.8025603067        3.6078286644
 C        -9.5759656692       -4.5376858804        4.6397277113
 O        -7.5931949308       -5.3342039725        6.3022153649
 O        -6.9055094895       -5.4966455407        2.2262377381
 C        -8.3096792865       -3.0366122960        1.2293506847
 C        -8.1333603897       -1.4982281019        0.9834404611
 C        -8.5283611444       -1.0298057839       -0.3717136148
 C        -7.8282102524        0.3128683365       -0.6263128985
 C        -8.5171785828        1.6542328459       -0.1305714890
 O        -7.9615510810       -0.7109321902        1.8729282744
 O        -6.8934409721        0.4551069749       -1.4110318748
 C        -8.1863302689       -1.9559371136       -1.5772770771
 C       -10.1343575477       -0.8564534545       -0.4293441652
 C        -7.6282934124        2.8733225003        0.0779504510
 C        -6.6864235353        2.7399537562        1.3573925555
 C        -5.1028366620        3.1130743894        1.4225840845
 C        -4.4876412919        2.3980478543        0.2277041447
 C        -4.3133164344        0.8861890101        0.3210087419
 C        -5.0596726639        4.6489311589        1.5055601303
 C        -4.6386648507        2.4632181360        2.9163307975
 O        -7.2374509291        2.5061787544        2.4363537601
 O        -3.9979287127        3.0055473620       -0.7853250556
 C        -3.7892581740        0.4069931918       -1.0778179537
 C        -2.4069386068        0.8784636215       -1.4419881446
 C        -1.9902231891        1.3090323653       -2.9192798970
 C        -0.5683040234        1.9278459211       -2.7805525606
 C        -0.4353938210        3.4927384626       -2.3966693955
 O        -1.5194701493        0.6795468160       -0.6689510489
 O         0.3812844052        1.2588284683       -2.9243123740
 C        -1.9419598027       -0.1358515868       -3.5426265358
 C        -2.8717201184        2.2681669766       -3.7323927580
 C         1.0613203526        3.8855723667       -2.3154521747
 C         1.5549279816        3.6703221546       -0.8232307875
 C         2.6169501274        4.7007313777       -0.2396154541
 C         3.2488407982        4.1369726300        1.0738239116
 C         4.0998201669        2.7782381538        0.8011515524
 C         3.6846210023        5.1105564097       -1.3306888078
 C         1.7928834266        5.9096246036        0.1931387586
 O         1.2124578376        2.7570044645       -0.0749749849
 O         3.0161338943        4.6438992061        2.1564210648
 C         4.8774135283        2.3105380597        2.0920280588
 C         5.1753093478        0.6739723827        1.9088004197
 C         4.3050834866       -0.3491824308        2.6907534809
 C         3.1127714337       -0.8656606892        1.7351613423
 C         3.0171110202       -2.3386835137        1.2875665379
 O         6.0353569442        0.3181301920        1.0886019250
 O         2.2938303633        0.0389923567        1.4407969866
 C         5.2486296835       -1.4112090961        3.3028585265
 C         3.4772604314        0.3317024951        3.8674884269
 C         4.0130079894       -2.4923919784        0.1162227119
 C         3.6068143470       -2.0910493309       -1.2458033745
 C         4.3538070596       -2.8344083214       -2.4715705497
 C         5.8949353891       -2.5944991837       -2.0922666739
 C         6.4278473258       -1.1957251635       -2.0052748701
 C         4.0068411916       -4.3737642178       -2.4547510103
 C         3.8250486878       -2.0431031695       -3.8046556095
 O         2.6859435761       -1.3169720155       -1.5048202380
 O         6.4838436577       -3.5601501219       -1.7194582821
 C         7.9057275642       -1.3276418941       -1.9967853082
 C         8.6154087531       -1.1831890652       -3.3739494584
 C        10.0340715928       -1.7145266699       -3.6191439494
 C        11.0300108652       -0.7043392707       -4.2601334794
 C        10.5947629887        0.6402023987       -4.8596946291
 O         8.0861467735       -0.5620825199       -4.2050913823
 O        12.2120113824       -1.0535349202       -4.2748415875
 C        10.6207858854       -2.2219826583       -2.2282293901
 C        10.1572052123       -2.9325632287       -4.5582454923
 H        -5.3597091289       -6.1105823265        5.4455108650
 H        -6.2816076424       -7.6502707353        5.4246032365
 H        -5.9486866826       -6.7645525225        3.9335541005
 H        -8.5979305794       -2.8613341306        3.2803323192
 H        -6.9548016584       -2.8403358505        2.9188067237
 H       -10.0328628895       -6.5951065705        3.0367673805
 H        -9.3508167707       -7.4254392472        4.4480058022
 H        -8.5298029088       -7.3249898683        2.8976973510
 H       -10.1483911068       -4.9381881768        5.4726628462
 H        -9.0665223397       -3.6328895618        4.9001821695
 H       -10.3144649463       -4.3595220385        3.8622706450
 H        -7.6363121874       -3.5781239073        0.5716250732
 H        -9.3008416739       -3.1785650612        1.0016011351
 H        -9.5274268570        1.9177091157       -0.7038748560
 H        -8.8686815002        1.3776225051        0.8895106456
 H        -7.1117511713       -1.9443395797       -1.5999249430
 H        -8.4820585446       -1.5400563452       -2.5793257936
 H        -8.5480539010       -2.9768340240       -1.4664944633
 H       -10.5402570903       -0.1810153524        0.2727360326
 H       -10.2979644338       -0.4295258090       -1.3851518911
 H       -10.7388992388       -1.7478288288       -0.4384916240
 H        -8.2266398534        3.7626703636        0.2503387549
 H        -6.9961921322        2.9650070740       -0.8718637584
 H        -3.5850055947        0.6673669526        1.1421517888
 H        -5.2237442230        0.3055155819        0.5205123682
 H        -5.8836357116        4.9980603990        0.9542807441
 H        -4.1611388373        5.0631487947        1.0859164188
 H        -5.1665886157        4.9417982259        2.5420942295
 H        -3.5681132177        2.1716252568        2.7529788520
 H        -4.6509079993        3.2458355482        3.7053138505
 H        -5.1538535617        1.5621065448        3.1079699945
 H        -3.7532695157       -0.6925844579       -0.9824003283
 H        -4.4620513137        0.7163821432       -1.9507293178
 H        -0.9120615456        4.0298060067       -3.2556819524
 H        -0.9953446875        3.8521861389       -1.4534674483
 H        -1.4273062991       -0.7846613577       -2.8504221716
 H        -1.4076080111       -0.1204669077       -4.4938407243
 H        -3.0010460973       -0.4657470478       -3.6819156765
 H        -2.3201975438        3.1194430343       -4.0903536284
 H        -3.3196094119        1.7415258383       -4.5123975525
 H        -3.7411597443        2.6112293070       -3.1700959177
 H         1.4235987144        4.9012646420       -2.5578840049
 H         1.5166938370        3.1027885666       -2.9946581470
 H         3.2337732159        2.1301388764        0.5629815506
 H         4.7735938012        2.9079615779       -0.0162123913
 H         3.9196625528        4.2180154491       -1.8497559527
 H         4.5317833814        5.4356752240       -0.8449066103
 H         3.2484131145        5.8941555880       -2.0151671746
 H         1.3779354642        6.3513090289       -0.6897886934
 H         0.9892727353        5.6179493992        0.9078117367
 H         2.2676604859        6.6947153949        0.6703381583
 H         5.8167930967        2.9921053607        2.0654344390
 H         4.3812427250        2.4796224006        3.0189752773
 H         3.1454264498       -3.0857790803        2.0886764833
 H         1.9577105592       -2.4265184756        1.0015194995
 H         5.9178092669       -0.9116849801        4.0275497797
 H         5.8972503009       -1.6114195714        2.4551664108
 H         4.8635046289       -2.3188300556        3.7364904572
 H         3.2834136116       -0.3553867501        4.6593160398
 H         4.0183632202        1.1382544866        4.3100998634
 H         2.4902496436        0.7382849754        3.5453631919
 H         4.5717896604       -3.4782185132        0.1542979836
 H         4.8597060330       -1.7786209711        0.4480079843
 H         6.1190533911       -0.6031035153       -2.8391316843
 H         5.9876466004       -0.7695638358       -1.1372509968
 H         4.5128389401       -4.9228971238       -1.6630611786
 H         4.3777387232       -4.8651860397       -3.3415475905
 H         2.9812447098       -4.5390608600       -2.3824060787
 H         4.4972507197       -2.3455177453       -4.6582947593
 H         2.7916450069       -2.2308592478       -4.1830726629
 H         3.9394549979       -1.0469663345       -3.5364510262
 H         8.5225929990       -0.6338327399       -1.3984993626
 H         8.1434591404       -2.3328081113       -1.6168074129
 H         9.7084008857        0.5415730320       -5.5048332357
 H        10.1144591946        1.2265486932       -4.0893803783
 H        11.3836642398        1.2646417472       -5.3061203849
 H        10.0234485576       -2.9415398702       -1.6996112738
 H        10.7841234106       -1.4180173484       -1.5218606145
 H        11.6204767994       -2.7054701851       -2.4792046705
 H        11.2139564489       -3.0556417703       -4.9032177017
 H         9.9334169775       -3.8766825853       -4.0644882056
 H         9.6729770957       -2.6935673792       -5.4654648992
 Na        0.9047272791        0.3565147639       -0.7613624212
