155

 C        -7.6609650741       -7.5501198797        5.4011931264
 C        -7.5394061755       -6.1551464434        4.6740783698
 C        -8.5896273446       -5.8767928287        3.5849433012
 C        -7.7950298362       -4.9928966887        2.4623135285
 C        -8.0969923542       -3.4614021645        2.3373663168
 C        -9.2828040132       -7.1888974237        2.9776977491
 C        -9.6643754745       -5.0629496442        4.3577653217
 O        -6.7596060793       -5.3357173653        5.1062739561
 O        -6.9861964236       -5.5527468070        1.7043377561
 C        -7.7978064309       -3.0560940953        0.8994960611
 C        -7.8398622296       -1.5071161261        0.8346948335
 C        -8.3104424782       -0.9392170416       -0.4779058627
 C        -8.0202590869        0.5601645756       -0.4849140076
 C        -8.6522129872        1.6114407180        0.4204712148
 O        -7.2454766244       -0.7718182495        1.5572159518
 O        -7.1833860267        0.9563684458       -1.3052806763
 C        -7.6781248985       -1.6379984087       -1.7051906832
 C        -9.8507334687       -1.2741442658       -0.4934220521
 C        -7.7766098644        2.9257347096        0.6182525840
 C        -6.9676257866        2.7504691488        1.8990151939
 C        -5.3625880948        2.7538785718        1.7204154641
 C        -4.7619843951        2.1703720595        0.4167117726
 C        -4.0033136450        0.8230236767        0.5298191610
 C        -5.0242117759        4.2814906094        1.5943730923
 C        -4.6279917998        2.1206395755        2.9481114474
 O        -7.5997431864        2.6390506787        2.9585967680
 O        -4.8985300340        2.7734429296       -0.6179582378
 C        -3.7220665901        0.4229829471       -0.9560656628
 C        -2.1450603005        0.6150388429       -1.3378395274
 C        -1.7415965681        1.1511292625       -2.8422307022
 C        -0.2394704483        1.8832072921       -2.7213704861
 C        -0.1390942222        3.4164059856       -2.5637424444
 O        -1.2680819953        0.3080972417       -0.5527823834
 O         0.7661794726        1.1578470658       -2.7668020985
 C        -1.5876487213       -0.2728329989       -3.4516193508
 C        -2.7718978208        1.9840958548       -3.5530600238
 C         1.2553715472        3.9718844987       -2.5076446264
 C         1.8568280403        3.7019576664       -1.0987204627
 C         2.6285580295        4.8499690996       -0.4237839421
 C         3.4996248326        4.3168886039        0.8900172871
 C         4.1359396275        2.8753868696        0.9293588653
 C         3.6028642806        5.7038488237       -1.4108545130
 C         1.5601526264        5.8918130014        0.1287187297
 O         1.5784433657        2.6888337593       -0.4747438648
 O         3.7744814780        5.0344071586        1.8469800666
 C         4.2776939379        2.3941993490        2.3726822767
 C         4.8723813750        0.9682051003        2.5382115306
 C         4.0057863145       -0.3658203273        2.8812899859
 C         3.0338947842       -0.5381928928        1.7647526457
 C         2.6155071444       -1.9735208155        1.3439070349
 O         5.9768892580        0.7247915310        2.1650936034
 O         2.4001212323        0.3630692277        1.2548130365
 C         4.8936873593       -1.5506359901        3.1758770702
 C         3.1366547856       -0.1359195109        4.1843508235
 C         3.6496225469       -2.4471053991        0.2378776801
 C         3.2279203787       -2.1433066780       -1.3419928578
 C         4.1202427112       -2.9574192979       -2.4763502056
 C         5.6906326112       -2.7345657300       -2.2806505661
 C         6.3515883939       -1.3035815867       -2.4925567068
 C         3.9993306436       -4.5460434270       -2.2913068149
 C         3.6989473251       -2.5570533392       -3.9007727605
 O         2.3537080015       -1.3665544403       -1.5962764712
 O         6.3599641219       -3.6519312886       -1.8629007545
 C         7.8690949995       -1.3443789507       -2.2910125835
 C         8.7370746573       -1.0011236787       -3.4691795248
 C        10.3355173306       -1.3119034416       -3.5102913429
 C        11.1217985644       -0.0650614953       -3.8417664561
 C        10.4374714364        1.1794347712       -4.4193480891
 O         8.2337649340       -0.3448801210       -4.4152644630
 O        12.3498644435       -0.0649969507       -3.8345377940
 C        10.9226599128       -1.8246444117       -2.1908553718
 C        10.7067094875       -2.3591815393       -4.6180079318
 H        -6.8401888000       -7.6579624192        6.0769421276
 H        -8.5779150547       -7.4114870133        5.9620148102
 H        -7.8456853081       -8.3301671021        4.6802168068
 H        -9.1635438957       -3.4114661095        2.5136791955
 H        -7.4965535152       -2.8970895129        3.0400744755
 H       -10.3084840463       -7.0509769086        2.7861085406
 H        -9.2158806238       -8.1276393170        3.5402868157
 H        -8.7279615636       -7.4383661859        2.0563566998
 H       -10.1079990573       -5.8390404714        5.0049984038
 H        -9.2387992732       -4.4052450346        5.0586127494
 H       -10.2760072753       -4.6190094143        3.6990260259
 H        -6.8311302044       -3.3482709999        0.5649285559
 H        -8.4842774121       -3.4543882463        0.1221636352
 H        -9.5109769069        1.9447864170       -0.0620480611
 H        -8.9094047743        1.0574384028        1.3739108694
 H        -6.6696388846       -1.2025408396       -1.9183116151
 H        -8.3534097820       -1.3657586760       -2.5947593890
 H        -7.4696375505       -2.6679372806       -1.6444564396
 H       -10.2586402298       -1.0627447959        0.4898751111
 H       -10.3212435297       -0.6084365720       -1.2099253668
 H       -10.1294579266       -2.3061513185       -0.6694087734
 H        -8.3391202765        3.8961706650        0.6923881884
 H        -7.0789199253        3.1371572595       -0.2151107128
 H        -3.0304969005        0.8443774801        1.0549919098
 H        -4.6516799287       -0.0041231631        0.9752668028
 H        -5.5100386648        4.7099732988        0.7402068962
 H        -3.9923250105        4.2123824346        1.3070348217
 H        -5.1183932611        4.7987039087        2.5212906894
 H        -3.5966980904        2.1084499080        2.7109620471
 H        -4.8900446821        2.7147451546        3.8078960395
 H        -5.0399914082        1.1092801728        3.1609488632
 H        -3.9666407163       -0.6149367252       -1.0761791722
 H        -4.2666921067        0.9715921759       -1.6384901630
 H        -0.6400487439        3.9346277103       -3.4272057553
 H        -0.8065638050        3.8069247180       -1.8023002870
 H        -1.1082953430       -0.9883765565       -2.7651649398
 H        -1.1815443340       -0.2283429384       -4.4509096339
 H        -2.5975936257       -0.6425395220       -3.5839230747
 H        -2.5680711168        2.0421678412       -4.6287688446
 H        -3.7744709596        1.5492122007       -3.4958081337
 H        -2.8393491963        2.9822194263       -3.2163513746
 H         1.1416145558        5.0590887353       -2.6650014355
 H         1.9377450215        3.4623542845       -3.1921736964
 H         3.5733476564        2.2257463198        0.2590324713
 H         5.1813635238        2.8977594456        0.4576272746
 H         4.1708392207        4.9737677889       -2.0602785059
 H         4.1827078937        6.3771998447       -0.8144440120
 H         2.9408264699        6.3009449165       -2.0658455806
 H         0.9463054814        6.5289327397       -0.6304748020
 H         0.7576581262        5.3927215918        0.6668616074
 H         2.1074928319        6.5505670227        0.7744001016
 H         4.8316445211        3.0170169912        2.9918918670
 H         3.2224989978        2.3751293932        2.7868678421
 H         2.6702543348       -2.6096463673        2.2482481583
 H         1.5715688638       -1.9532619302        0.9995423733
 H         5.2849047783       -1.3407088568        4.1344479137
 H         5.7198531942       -1.5163498305        2.4467734392
 H         4.3882456240       -2.5066311208        3.1845004667
 H         2.7332912213       -1.0031546108        4.6490322640
 H         3.6999995959        0.4049426607        4.9285713263
 H         2.3622735795        0.5433941231        3.9694912497
 H         4.0485692880       -3.4728296351        0.2519632242
 H         4.6383682643       -1.9651622705        0.3530487571
 H         6.2763457129       -1.1260679516       -3.5489056149
 H         5.7756142382       -0.5516094663       -1.9546778661
 H         4.6396794179       -4.8283878349       -1.4959860511
 H         4.4292274054       -4.9998296169       -3.1790808589
 H         3.0139185290       -5.0231924234       -2.2377006764
 H         4.3652086803       -2.9195777183       -4.7162778817
 H         2.6458723440       -2.8437237248       -3.9776334075
 H         3.4925592514       -1.4512348339       -4.0538236753
 H         8.2446583993       -0.6856064366       -1.4907767149
 H         8.1438756629       -2.3427330895       -1.9022576474
 H         9.8292368671        1.0003553217       -5.2789077659
 H         9.6932614133        1.5726665865       -3.7221200520
 H        11.1358719338        2.0098041867       -4.6749457627
 H        10.1608193613       -2.3810529777       -1.7192128360
 H        11.4055196369       -1.0660173778       -1.6115962126
 H        11.6896219076       -2.5117227384       -2.4161867272
 H        11.7732106903       -2.1504328997       -4.7250661387
 H        10.6091398699       -3.3574152471       -4.3503853455
 H        10.1553706679       -2.2917297145       -5.5090223485
 Na        1.0665032813        0.2265472930       -0.5545398856
