155

 C        -7.9075941934       -7.4185594611        5.6302548331
 C        -7.5548315058       -6.3776486552        4.6300534958
 C        -8.6400170004       -5.9342515223        3.4532859363
 C        -7.8515035868       -5.1222537976        2.3674137814
 C        -8.2685385221       -3.5635208322        2.1849149986
 C        -9.1668179041       -7.1449628329        2.6504292489
 C        -9.8053383561       -5.1326230597        4.2401572748
 O        -6.5194175288       -5.7630155549        4.6520199200
 O        -7.2585089345       -5.6623617868        1.5091840591
 C        -7.6772407998       -3.1071497236        0.9153102164
 C        -7.6158233390       -1.5808236497        0.8381695567
 C        -8.1999215651       -0.8595817500       -0.4682268652
 C        -7.9512201975        0.6582607774       -0.6414453631
 C        -8.6759079539        1.5103376898        0.4090638689
 O        -6.8880558526       -0.9880612344        1.6400023545
 O        -7.1762315039        1.1486504850       -1.3949116096
 C        -7.6435067633       -1.5686459720       -1.8298935772
 C        -9.6926141906       -1.0993012557       -0.4569547817
 C        -7.8799684444        2.7439600676        0.7197935532
 C        -6.9415574005        2.6443555313        1.9414012929
 C        -5.3603579751        2.7935232313        1.7482382972
 C        -4.8062464462        2.1016619737        0.5329156560
 C        -3.9881471430        0.7596623946        0.5193275660
 C        -4.9724914439        4.2884311001        1.7891110901
 C        -4.8843353421        2.2288018715        3.1096326429
 O        -7.3139091859        2.4600896650        3.0384797074
 O        -5.0562964958        2.7020547115       -0.5118813670
 C        -3.5677157498        0.3530436871       -0.9440498521
 C        -2.0153828061        0.5377490473       -1.2079913812
 C        -1.6170926563        1.0736194842       -2.7864172487
 C        -0.2703089743        1.7982481321       -2.7333210865
 C        -0.1550542696        3.3523811945       -2.6099252800
 O        -1.1922348671        0.1214329953       -0.4019324955
 O         0.7553482722        1.1214206614       -2.8545754229
 C        -1.3734708008       -0.2293508096       -3.5109833110
 C        -2.7842435520        1.9413104892       -3.4279705616
 C         1.3476821775        3.6858675700       -2.4988261504
 C         1.8752617989        3.6346405242       -1.0636344042
 C         2.6709617567        4.8362150254       -0.4397142976
 C         3.5221569239        4.3923434497        0.9102449712
 C         4.2255452115        2.9580182016        0.9177212193
 C         3.6884840412        5.5872065759       -1.2459549039
 C         1.6601808720        5.7970070281        0.1897044092
 O         1.6673246425        2.6905287390       -0.3375447023
 O         3.8568207999        5.2417528311        1.6841410052
 C         3.9381468041        2.3387138511        2.3169096136
 C         4.6975805924        0.9987067492        2.5567052348
 C         3.8624241126       -0.3006402053        2.8221559070
 C         2.9526693042       -0.6602060185        1.6728813570
 C         2.6625462400       -1.9847318385        1.0478767230
 O         5.8622234808        0.9355652815        2.4625524265
 O         2.2710072686        0.2564758711        1.2568649433
 C         4.8884549133       -1.4659027951        3.0941920405
 C         3.0949982690        0.0397178067        4.1160770617
 C         3.6791239973       -2.5001989054        0.1257831568
 C         3.3193068091       -2.1752694758       -1.3293224890
 C         4.1457886545       -2.9004591159       -2.3721918205
 C         5.7137728014       -2.6714216154       -2.1841086231
 C         6.3990859152       -1.3711010953       -2.6347957377
 C         3.6900487545       -4.4287909338       -2.1557160306
 C         3.5137121367       -2.4796981960       -3.8221417207
 O         2.3516754226       -1.4365529862       -1.6028800756
 O         6.3612903917       -3.6027478108       -1.6873790626
 C         7.8850090987       -1.5520390750       -2.3457710249
 C         8.7723194660       -0.9230043952       -3.5139234749
 C        10.3262743796       -1.0726694084       -3.5158804230
 C        11.1572558598        0.2246355423       -3.8110618209
 C        10.4939391554        1.4758802934       -4.2868094958
 O         8.2649916700       -0.5799483547       -4.5401008148
 O        12.3230105181        0.2754919225       -3.5792444261
 C        10.7840514931       -1.6518408504       -2.1253816960
 C        10.5788260259       -2.1464333722       -4.5883920054
 H        -7.4058599571       -7.1610094035        6.5945899161
 H        -9.0030109587       -7.4646444078        5.8010914694
 H        -7.5681634354       -8.3676012090        5.1636887496
 H        -9.3656372269       -3.5283354146        2.1800146646
 H        -7.7678766358       -2.9595103029        2.9328983971
 H        -9.8170016244       -6.7950278070        1.8072981885
 H        -9.8046776909       -7.7356585605        3.2971106132
 H        -8.3935624747       -7.8324642887        2.3096362575
 H       -10.1157920736       -5.6783296559        5.0893530982
 H        -9.3445670473       -4.2210354531        4.6720078807
 H       -10.6618154735       -4.9661185943        3.4699478765
 H        -6.5615711863       -3.3744093174        0.8789998506
 H        -8.0468002433       -3.5338087596       -0.0297868578
 H        -9.6004631289        1.9318430776       -0.0714479431
 H        -8.9059621569        0.9439628558        1.2618828879
 H        -6.6968036568       -1.0681349413       -2.0398250746
 H        -8.2955040715       -1.3769838185       -2.6337634163
 H        -7.3584946298       -2.6944636862       -1.8433759665
 H       -10.0885509176       -0.4912810672        0.4422336652
 H       -10.2147151059       -0.6299471041       -1.3453721027
 H       -10.0178220608       -2.1533181598       -0.2282430827
 H        -8.5402991392        3.4879617724        1.1370546062
 H        -7.4777224304        3.2749888735       -0.1120180680
 H        -3.0942754280        0.9996845477        1.0950245613
 H        -4.4657542625       -0.0697791435        0.9296379082
 H        -5.5275332399        4.6116807922        0.8707019527
 H        -3.8791953296        4.4615152062        1.6824124190
 H        -5.4233638208        4.7954594220        2.6652315826
 H        -3.7919246702        2.2885821026        3.0440283543
 H        -5.3275155302        2.8154298069        3.8871412877
 H        -5.2341505893        1.2224236156        3.2112053305
 H        -3.9731222770       -0.6379037317       -1.2191703569
 H        -4.0527683047        1.1022986944       -1.6619787442
 H        -0.5747708042        3.8916753833       -3.4061170935
 H        -0.8270198238        3.6805062456       -1.8245922445
 H        -0.7059769491       -0.8898952806       -2.9560935675
 H        -0.9969550419       -0.0789340185       -4.5311522166
 H        -2.3204511600       -0.7619701915       -3.5463974543
 H        -2.5253091511        2.6107117944       -4.2440430381
 H        -3.4597699123        1.2812897453       -4.0035941079
 H        -3.3987317377        2.5472894664       -2.7092081449
 H         1.5220369655        4.6848718748       -2.8347393024
 H         1.8786781486        2.9212109441       -3.0559314318
 H         3.8784528310        2.3293556724        0.0595677679
 H         5.2951412598        2.9808160233        0.7888834961
 H         4.4131306259        4.8074885334       -1.3982497412
 H         4.0884514576        6.3986192688       -0.5491689485
 H         3.3398538218        5.9867188313       -2.1749942954
 H         0.9782038890        6.1894865532       -0.4980352301
 H         0.9924054463        5.1846389426        0.8191844663
 H         2.1025116314        6.6651452141        0.7717024186
 H         4.1730312269        3.0743131552        3.1811869061
 H         2.8926413645        2.1135601013        2.3424475061
 H         2.3735797121       -2.7092572127        1.8029532470
 H         1.7669591296       -1.7165350886        0.4844949607
 H         5.5524914462       -1.3135261619        3.9532084172
 H         5.4419130758       -1.5652576157        2.2063458226
 H         4.2798522519       -2.3459282567        3.2200922637
 H         2.8261187510       -0.8956192352        4.6559665876
 H         3.7510274972        0.4988555853        4.8485650813
 H         2.2146144622        0.6857742239        4.0634531356
 H         3.9915306768       -3.5585026306        0.1493498830
 H         4.6299145638       -2.0833218706        0.3406748384
 H         6.2284365488       -1.1019226118       -3.7228391615
 H         5.9087991833       -0.6389032282       -1.9443702817
 H         4.0847844154       -4.8036474395       -1.1855474258
 H         3.8152107455       -5.1845889906       -2.9438659043
 H         2.5913875436       -4.4050539083       -2.1013479206
 H         4.2463112294       -2.6756190275       -4.5634624361
 H         2.5400055449       -2.9143670667       -4.0506249460
 H         3.3819035991       -1.3884915295       -3.9547441533
 H         8.1329264143       -1.3904230735       -1.3028335588
 H         8.0585335262       -2.6262561001       -2.4027673228
 H        10.1098083371        1.4282957458       -5.3295281237
 H         9.6382009852        1.7712272648       -3.6799427791
 H        11.1688596466        2.2975027712       -4.3254470062
 H        10.7713751322       -2.7591679997       -2.0602203450
 H        10.2463164158       -1.1069009622       -1.3459456962
 H        11.8456812516       -1.3855009561       -2.0910247351
 H        11.5650746859       -2.4585994977       -4.6918041809
 H         9.8576797732       -2.9641982795       -4.4935616815
 H        10.1802035172       -1.7128804791       -5.5287670669
 Na        1.0769738627        0.5137921614       -0.6685074465
