155

 C        -8.0645686261       -6.8437055486        5.7242386324
 C        -7.6808038687       -6.5378566901        4.2970886775
 C        -8.7335784633       -6.0895485696        3.1886614992
 C        -8.0675597438       -5.3845755278        1.9893167359
 C        -8.0450423412       -3.8031268133        1.9768040862
 C        -9.3794289689       -7.3807087097        2.5497083916
 C        -9.8775393469       -5.2320328722        3.8154810453
 O        -6.5597618850       -6.6860124295        3.8307908999
 O        -7.4896056597       -5.9447562091        1.1093646326
 C        -7.3611020706       -3.1644512509        0.7395458551
 C        -7.2535890383       -1.6214663683        0.5796812126
 C        -8.0394875893       -1.0291488867       -0.5933479277
 C        -7.8611003831        0.6400037710       -0.6426543495
 C        -8.6263782576        1.4640298176        0.3989310777
 O        -6.4232867604       -0.9336886099        1.1813208570
 O        -7.0480072671        1.1124108704       -1.3860469284
 C        -7.5676688590       -1.5214042276       -1.9102533722
 C        -9.5921531290       -1.1978143446       -0.3789402549
 C        -7.6627175072        2.6301353513        0.9066940660
 C        -6.7054429261        2.3091716648        2.0717355516
 C        -5.0923537416        2.5877004038        1.9842449847
 C        -4.5308153760        2.1737837306        0.5453777292
 C        -3.8115846941        0.8871068586        0.5802982826
 C        -5.0947763990        4.1816647619        1.9116062697
 C        -4.4729567235        2.0444770065        3.2830356531
 O        -7.1074134976        1.9303566796        3.1251570483
 O        -4.7365937272        2.8133408554       -0.4627566114
 C        -3.4622986972        0.4386257876       -0.7951291253
 C        -1.9777323346        0.7882791729       -1.2147376562
 C        -1.6759151989        1.0845383491       -2.7059917085
 C        -0.3094152113        1.6493065677       -2.6890125984
 C        -0.1164372305        3.1636593789       -2.3494627243
 O        -1.0693877444        0.5178844208       -0.3737446688
 O         0.6376573796        0.9641694265       -3.0858377953
 C        -1.8737525828       -0.3551753890       -3.4205527899
 C        -2.7744322491        1.9867607078       -3.2495301806
 C         1.2707597191        3.7109234474       -2.2207096960
 C         1.8635910266        3.6234755158       -0.7942452267
 C         2.6784445969        4.8201298720       -0.3492284528
 C         3.6584495220        4.5401887177        0.9370394834
 C         4.4203268762        3.2331380012        1.0733333208
 C         3.6890051715        5.2733897244       -1.5285778765
 C         1.7949876176        6.1353462637        0.0260648872
 O         1.7222363304        2.6415731438       -0.1261468072
 O         3.7691716311        5.5321147305        1.6337687013
 C         3.7110368586        2.3956090869        2.1857095146
 C         4.4132942374        1.1584757087        2.5348819137
 C         3.6351836091       -0.2588205854        3.0154997057
 C         2.7229107675       -0.6824500854        1.8838810463
 C         2.7828336093       -2.0941851902        1.2113757824
 O         5.5905783414        1.1620810768        2.5785921544
 O         1.8539671791        0.0833935276        1.5739620243
 C         4.7912461005       -1.2354145143        3.3455604789
 C         2.8268190897        0.0786165101        4.2830489759
 C         3.8184893413       -2.4863026360        0.0208682556
 C         3.4892807775       -2.0805124105       -1.3515337183
 C         4.0287268385       -2.8870720577       -2.5877154424
 C         5.6162154963       -2.9420206549       -2.2836154443
 C         6.5467046176       -2.0834966967       -3.1357161319
 C         3.5529332236       -4.3187868730       -2.5620635124
 C         3.5121608360       -2.2276945109       -3.7942456903
 O         2.7201084136       -1.1477639849       -1.5842070305
 O         6.0050457011       -3.4663329878       -1.2479430572
 C         7.8695257173       -1.5857378180       -2.5348511764
 C         8.7247066668       -0.9472783583       -3.5497294410
 C        10.2537926328       -0.8580844849       -3.3372604910
 C        10.8290107805        0.5957995936       -3.4974579120
 C        10.0106118579        1.7019441184       -4.2502643580
 O         8.1473013737       -0.3172065316       -4.4334346704
 O        11.8941912942        0.9230320571       -3.0651742375
 C        10.7450197749       -1.4823810033       -2.0827146056
 C        11.0137416182       -1.6163196481       -4.5426247453
 H        -8.8123532355       -6.1289309230        6.1021823241
 H        -8.6964756383       -7.7106803188        5.6063772469
 H        -7.1986907895       -6.9149456641        6.3709222025
 H        -9.0849134161       -3.5680886551        2.1106332036
 H        -7.5380249817       -3.5360501398        2.8740111127
 H        -9.7729060911       -7.2075312235        1.5554524862
 H       -10.1555552736       -7.7637423638        3.1943151325
 H        -8.6231412167       -8.1756342907        2.3578468336
 H       -10.4890367046       -5.9146418930        4.3595805902
 H        -9.4949699794       -4.4100618247        4.3733710855
 H       -10.6092688746       -4.9330719748        3.0585627639
 H        -6.2784140597       -3.4960117423        0.6223492949
 H        -7.8634679426       -3.5852861528       -0.1575182072
 H        -9.3752696933        1.9754248843       -0.1504501902
 H        -9.0820127671        0.8784893995        1.1457647981
 H        -6.5401514943       -1.9533067145       -1.9875620891
 H        -7.6689056391       -0.7749871409       -2.6608807360
 H        -8.3308152475       -2.2494990840       -2.3173725146
 H        -9.9991696567       -0.9322961574        0.6537077316
 H       -10.1201918685       -0.5314048719       -1.0961483076
 H        -9.7717037575       -2.1962969454       -0.7850837448
 H        -8.3900232855        3.3351851385        1.3740887123
 H        -7.1708713000        3.2537770830        0.2080004480
 H        -2.8842775465        1.0004688165        1.1851261119
 H        -4.5082958383        0.2587653116        1.0896691233
 H        -5.6707449030        4.4153676709        1.0183418124
 H        -4.1187135718        4.5864262024        2.0016666309
 H        -5.5800958443        4.6209562696        2.7504105240
 H        -3.3952779686        2.1219449600        3.1971289788
 H        -4.8257060192        2.7489207061        3.9618421158
 H        -4.8049356676        1.0181056213        3.4666397083
 H        -3.3731857635       -0.6192221428       -0.8712824715
 H        -4.2792420727        0.7391369424       -1.4511204684
 H        -0.6525410574        3.5985967789       -3.1463051987
 H        -0.6761586936        3.4620851800       -1.4651457535
 H        -1.0682430711       -1.0464577802       -3.2271158678
 H        -1.8927941516       -0.2815335060       -4.5161762047
 H        -2.7872355560       -0.7319184426       -3.0255496154
 H        -2.5493016021        2.3013708671       -4.2518184209
 H        -3.8379675173        1.6897452501       -3.2897421639
 H        -2.7658152116        2.8936096526       -2.6496936449
 H         1.3376507475        4.7410634615       -2.4410197121
 H         1.9805172388        3.1376311255       -2.7957043796
 H         4.4283333936        2.6800958905        0.0970597464
 H         5.4761478429        3.4101167758        1.2955946636
 H         4.2769513657        4.4731275209       -2.0839540484
 H         4.3822284901        5.9607807972       -0.9146455814
 H         3.1279734759        5.9169695390       -2.1728811764
 H         1.2880117010        6.5052647529       -0.8836536936
 H         1.0266210729        5.9033458572        0.7769245819
 H         2.4094226163        6.9928313603        0.5083157557
 H         3.8518785161        3.0710280442        3.0867352919
 H         2.6453040196        2.3678543950        2.0211419883
 H         3.2008212101       -2.8030540445        1.9182923508
 H         1.7430791973       -2.3741923172        0.9285791154
 H         5.3298414673       -0.7680708881        4.1618223638
 H         5.4442638128       -1.2109950345        2.5043976458
 H         4.4775280545       -2.2611125518        3.5366692294
 H         2.1144674660       -0.6444327382        4.6511405174
 H         3.5339903947        0.1880814933        5.0678380132
 H         2.2739315753        0.9590816015        4.2404579330
 H         4.0538185467       -3.5816725307        0.0780387580
 H         4.7464986917       -1.9909107038        0.1658420373
 H         6.7502138499       -2.6549966192       -4.0749929915
 H         5.9414628548       -1.1890494260       -3.3851886592
 H         3.6755856293       -4.7534016318       -1.5891656843
 H         3.9481368482       -4.9723214952       -3.3270139879
 H         2.4651336963       -4.3299853723       -2.7373418083
 H         4.0768771032       -2.4114455736       -4.6541579729
 H         2.5499162021       -2.6269741172       -4.0718454865
 H         3.6407476362       -1.0902052974       -3.7376555803
 H         7.7804652313       -0.8692056116       -1.7017865043
 H         8.4098906847       -2.4258345651       -2.1154715264
 H         9.6649902351        1.4373558236       -5.2511413339
 H         9.1728823720        1.9910763566       -3.6198974297
 H        10.5205858288        2.6286735118       -4.4129657400
 H        10.2352302003       -2.4318018640       -1.9993322961
 H        10.6139677663       -0.9727955771       -1.1880899917
 H        11.6985511305       -1.7566621921       -2.3262831439
 H        12.0063235073       -1.3008937623       -4.6377315399
 H        10.9831701477       -2.6492475183       -4.3124642741
 H        10.5559076921       -1.4310439365       -5.5018045980
 Na        1.1678513149        0.1757760960       -0.4888193749
