155

 C        -7.6188131122       -5.5084637568        4.6133279873
 C        -7.8951885974       -6.5521564527        3.4814137413
 C        -8.9953090535       -6.1647640631        2.4578426196
 C        -8.2277751163       -5.7207756405        1.1811140675
 C        -7.4886699188       -4.4147655095        1.2661558629
 C        -9.6856578871       -7.4935271345        2.1161100745
 C        -9.9905702362       -5.1120460602        3.0047617790
 O        -7.1392096880       -7.4836868619        3.3747062720
 O        -8.3268792093       -6.3791890685        0.1592747451
 C        -7.1165988528       -3.7501233397       -0.0732746328
 C        -6.9422372373       -2.1713051197        0.1644430199
 C        -7.8669962360       -1.3192919941       -0.8091501914
 C        -7.4264091492        0.1465795013       -0.5453565837
 C        -7.9290722812        0.8231836220        0.7631757104
 O        -6.1229350273       -1.7802396837        0.9354535874
 O        -6.6853473836        0.7478042114       -1.3233557178
 C        -7.7297481208       -1.7682698474       -2.2339403088
 C        -9.4087315129       -1.4542753377       -0.2294462739
 C        -7.2260882139        2.0901667312        1.2123983784
 C        -6.1424922613        1.8722662701        2.2129543605
 C        -4.7875214416        2.7120839990        2.2735329318
 C        -3.8480003377        2.0964131118        1.1538083461
 C        -3.7666681354        0.5635802968        0.9565457086
 C        -4.9909679127        4.2279824512        1.8641807668
 C        -3.8984351567        2.5652699343        3.5680660401
 O        -6.2009464016        0.8517426732        2.9765874397
 O        -3.0084707660        2.7407160349        0.5955554938
 C        -3.7470446554        0.4249149338       -0.6168001525
 C        -2.3256979946        0.7296049873       -1.0167569407
 C        -2.0125615562        1.3840131312       -2.4213131325
 C        -0.4736108759        1.8159626631       -2.5507086244
 C        -0.3288755810        3.3338807487       -2.2825477355
 O        -1.4098816568        0.2581118183       -0.3058409775
 O         0.4554600881        1.0784223848       -2.8189380001
 C        -2.2621380434        0.2012990672       -3.3775697452
 C        -2.9672077619        2.4805824073       -2.8304287430
 C         1.1091556878        3.7486273256       -2.2552247281
 C         1.8296313403        3.5929910919       -0.9287845301
 C         2.8263129987        4.7326408279       -0.4709820094
 C         3.1837999387        4.4309179390        1.0229286336
 C         4.2985194384        3.3505990507        1.1818746165
 C         4.0649340836        4.6141780786       -1.3703266020
 C         2.2792249325        6.0829936621       -0.4954701747
 O         1.7730569179        2.5373737050       -0.2994252968
 O         2.6902822916        5.0877484857        1.9256946583
 C         3.7819952465        2.4435563727        2.3016476635
 C         4.3026267048        1.0269112430        2.3221027117
 C         3.4239314532       -0.0131804275        3.2176431883
 C         2.4488255422       -0.5062980503        2.1464589515
 C         2.7739783492       -1.7982941539        1.3698810839
 O         5.1885176074        0.5773721552        1.5540636944
 O         1.4958570687        0.0968035838        1.7677032839
 C         4.3119845177       -1.1006771059        3.7334564871
 C         2.7020802919        0.6249157166        4.4645371342
 C         4.1024986127       -1.9842778194        0.4058829904
 C         3.6295729990       -1.5748992533       -1.0583450315
 C         4.2732247257       -2.5260625420       -2.2624533649
 C         5.8577663867       -2.5611760791       -2.1302147810
 C         6.7350791315       -2.3767249539       -3.4816652287
 C         3.8551597231       -4.0236760873       -1.9868413064
 C         3.6466966727       -1.8489751613       -3.5418090542
 O         2.7255079265       -0.8566391576       -1.3276918734
 O         6.4516513358       -2.9165763994       -1.1155743627
 C         8.2636251641       -2.2218551904       -3.1127350191
 C         8.7173339915       -0.7579865614       -3.5948157888
 C        10.1812204198       -0.3290461205       -3.2746199109
 C        10.0301349026        1.2671030012       -2.8903780306
 C         9.9549668424        2.1267927027       -4.0609479767
 O         8.0546057124       -0.0799232603       -4.3972038711
 O         9.7770826901        1.5554473837       -1.7530180929
 C        10.8501027471       -1.1212556212       -2.0899432750
 C        10.8401619035       -0.7569271825       -4.6372267479
 H        -7.4211686000       -4.4768408076        4.3210356114
 H        -8.4772426115       -5.5620533873        5.2871743955
 H        -6.8113337471       -5.9221630679        5.2443879607
 H        -8.2712779245       -3.7585083375        1.7242852762
 H        -6.6984178759       -4.3216661908        1.9748212243
 H       -10.0466918240       -7.6224003799        1.1498762391
 H       -10.5364548941       -7.6225586316        2.7972306406
 H        -8.9624720063       -8.3114953220        2.4063462503
 H       -10.3222775615       -5.3539029470        4.0782594664
 H        -9.6577626586       -4.0836226826        3.1429510292
 H       -10.7537952051       -5.1215617446        2.3033638869
 H        -6.1246015790       -4.0856884775       -0.3201155358
 H        -7.7738445059       -4.0096623400       -0.8898306283
 H        -8.9688039960        0.8932362319        0.5438513631
 H        -7.8656373615       -0.0148654968        1.4885364530
 H        -6.7720917524       -1.6881015375       -2.7439358114
 H        -8.3997002767       -1.1743274554       -2.8561708145
 H        -7.9559747109       -2.7788114012       -2.3406992327
 H        -9.4520258840       -1.3398240705        0.8083454038
 H       -10.0207155199       -0.8352760531       -0.8140533483
 H        -9.5890930018       -2.4933356886       -0.3209729850
 H        -8.1048508482        2.7496964409        1.5439496709
 H        -6.7019117955        2.5585459978        0.3590443109
 H        -2.8364263045        0.1409926115        1.5090881564
 H        -4.6420819625        0.0379243044        1.3604289554
 H        -5.3332788288        4.3548767088        0.8258053892
 H        -4.0697119571        4.7750476020        1.7204203800
 H        -5.7151792560        4.7040697708        2.5219020667
 H        -2.9090080550        2.9318500082        3.3685138662
 H        -4.4056701899        3.0261486022        4.4002529773
 H        -3.9424079054        1.4529851974        3.7636634777
 H        -4.0442483356       -0.5320282611       -1.0145887118
 H        -4.5171799225        1.0556231269       -1.0128640324
 H        -0.8299043547        3.8177223277       -3.1442602382
 H        -0.7325163783        3.5269007181       -1.2492920659
 H        -1.2681873769       -0.2902199425       -3.5000843498
 H        -2.7330682982        0.4095341829       -4.3392763350
 H        -2.8389951414       -0.6100022227       -2.9742290936
 H        -2.4907163831        3.0396130043       -3.6510169213
 H        -3.9881881900        2.1849084146       -3.1439662410
 H        -3.0499257716        3.2752922135       -2.0858830404
 H         1.3870075872        4.7316190085       -2.6629300205
 H         1.7789603572        3.1323265347       -2.9324013263
 H         4.3918395694        2.6391745447        0.3272022313
 H         5.3274252459        3.6162711661        1.4866278051
 H         4.4109544850        3.5811232591       -1.4573981098
 H         4.7860987177        5.2204034459       -0.9957034119
 H         3.8589183377        4.9845284551       -2.3675484867
 H         2.1486162574        6.5160860298       -1.5238003498
 H         1.3937712393        6.1731659582        0.0850954822
 H         3.0778823640        6.5875825912       -0.0577609541
 H         3.9457092481        2.8467709182        3.2572680860
 H         2.7001748581        2.4517307807        2.4298773533
 H         2.6918213707       -2.7472960357        1.9424698829
 H         1.8839190851       -1.8711733465        0.7015080438
 H         4.6305528595       -0.8861186859        4.7236058135
 H         5.2074808809       -1.2343574554        3.1020346606
 H         3.7653915420       -2.0476872459        3.8828690707
 H         2.0696585530       -0.1273866675        5.0151504780
 H         3.3691040536        1.1208397449        5.2221488950
 H         2.0690323918        1.4602396009        4.1767121553
 H         4.3073070389       -3.0671928977        0.2524294111
 H         4.9359555135       -1.3942703021        0.6796883190
 H         6.5505837647       -3.1191547284       -4.2404403902
 H         6.4034822930       -1.4696422940       -3.9482228085
 H         4.3101393888       -4.2050941262       -1.0225639827
 H         4.2830935603       -4.8651494555       -2.5516880046
 H         2.7304218208       -4.1213197640       -1.8492223672
 H         3.7827456483       -2.3919151842       -4.5354727895
 H         2.6104479791       -1.7406629251       -3.2952106674
 H         3.7286568471       -0.7942022671       -3.6518899878
 H         8.3026091347       -2.3825827274       -2.0309016842
 H         8.7877616569       -2.9837234685       -3.7114337299
 H        10.8753091744        2.2872371695       -4.5747598943
 H         9.2894055162        1.6883810959       -4.8160210741
 H         9.5504095105        3.1208454204       -3.7661415909
 H        10.8825570272       -2.1823243191       -2.4390415228
 H        10.4044575928       -1.0619233244       -1.0568944834
 H        11.8762094311       -0.7395435440       -1.8270007248
 H        11.8387874059       -0.2107227148       -4.8957050924
 H        11.1101849109       -1.8311946195       -4.7059792868
 H        10.0932967699       -0.6546555775       -5.4650920128
 Na        0.9559250758        0.3370778114       -0.3466870591
