155

 C        -7.4088706188       -5.3037705057        3.9882735499
 C        -7.9525062719       -6.5835935303        3.2624336043
 C        -9.0764948068       -6.4674497403        2.2578573405
 C        -8.4843824122       -5.8580382595        0.8765069389
 C        -7.4067528152       -4.7775386537        0.8769918623
 C        -9.6559458100       -7.8689524481        1.9012162729
 C       -10.1595571239       -5.4398772676        2.7317539578
 O        -7.4611278019       -7.6350270121        3.5472092720
 O        -8.9894357292       -6.2222133783       -0.1584592078
 C        -7.1650739296       -4.0082578966       -0.4413879951
 C        -6.8080201066       -2.4886706829       -0.2571319394
 C        -7.8182387685       -1.4239401449       -0.8735897891
 C        -7.3259380077        0.0363787814       -0.4960881034
 C        -7.6623445413        0.6398660600        0.9592103185
 O        -5.8188215608       -2.1033095269        0.2457184741
 O        -6.7819962869        0.7593822826       -1.3356837333
 C        -7.8128012384       -1.7219190013       -2.4159504610
 C        -9.2761229916       -1.6603210610       -0.4639472641
 C        -6.8471003435        1.8329123324        1.2615211404
 C        -5.8674301197        1.7908945984        2.4821587804
 C        -4.5369197880        2.6720538024        2.2934266269
 C        -3.5471167054        1.9012811317        1.3661026896
 C        -3.5367257068        0.4251235868        1.2076112198
 C        -4.7832982172        4.0731108226        1.8906501578
 C        -3.7674187192        2.7396535289        3.6447523261
 O        -6.0909352907        1.1020853399        3.4767536504
 O        -2.6955072642        2.5898429015        0.8943243037
 C        -3.4501709623        0.0158706846       -0.3064026425
 C        -2.1284267698        0.4962794746       -0.9959018457
 C        -2.1750049195        1.4171267677       -2.2676154161
 C        -0.6489147055        1.9978496600       -2.3354241645
 C        -0.3213200755        3.5243786779       -2.3309186795
 O        -1.0869244503       -0.0872719158       -0.7276616438
 O         0.1954017180        1.2320640380       -2.6602200101
 C        -2.2438621967        0.5771328275       -3.6518566663
 C        -3.2562422839        2.5030238478       -2.2969672281
 C         1.2409425063        3.7461433281       -2.4149283671
 C         1.9226939296        3.6754904252       -1.0478577188
 C         2.9011027063        4.6668940832       -0.6071322565
 C         3.1507274187        4.3081079197        0.9067195445
 C         4.3369702530        3.4620466438        1.2982675156
 C         4.2042571402        4.6194509200       -1.5216307411
 C         2.4627188523        6.1751405895       -0.6326740181
 O         1.5821864418        2.6955581381       -0.2885410660
 O         2.3626249353        4.7260293125        1.6986024590
 C         4.1008379718        2.6825283527        2.6808035390
 C         4.2759701332        1.1559115608        2.5369555442
 C         3.4743747866       -0.0483059673        3.2576919687
 C         2.4596096850       -0.5819276815        2.0936618145
 C         2.6575728100       -1.8915508933        1.4146324041
 O         5.0507093302        0.6593886854        1.7452696335
 O         1.4766961210        0.0496095580        1.8461714487
 C         4.4516780030       -1.0795762858        3.8715371408
 C         2.5590707688        0.3382874128        4.4088401726
 C         3.8374129575       -2.1013781217        0.4226406796
 C         3.4638839533       -1.6848358914       -0.9847415420
 C         4.2695053896       -2.5655394424       -2.1337270210
 C         5.7791574323       -2.2302555501       -1.8842720074
 C         6.6506179596       -2.3720724907       -3.2200791833
 C         3.8066895011       -4.0256565791       -1.8702916266
 C         3.7804496729       -2.0719573922       -3.4681048673
 O         2.8299903930       -0.7181241632       -1.3632931117
 O         6.2634423008       -1.8373659984       -0.8115430534
 C         8.1989715679       -2.1060325330       -3.0667555708
 C         8.6133073296       -0.6695448336       -3.6851551476
 C         9.9658345682       -0.0631388156       -3.2763753985
 C         9.6333218158        1.4128640739       -2.7808146128
 C        10.2100546699        2.7030077547       -3.4108188625
 O         7.8091362305       -0.1086232738       -4.4142247411
 O         8.9441343294        1.4881126715       -1.8233012984
 C        10.5644314018       -0.8724345870       -2.1041682896
 C        10.9914593409       -0.0779979799       -4.4569903578
 H        -6.3374436340       -5.1900728295        4.0756634011
 H        -7.8833385619       -4.3824117524        3.6781610927
 H        -7.8841780459       -5.3056279003        4.9936043942
 H        -7.5922531346       -3.9640596305        1.6772128324
 H        -6.4790819044       -5.3113551770        1.1787492537
 H       -10.1062017338       -7.8971768888        0.9435310551
 H       -10.4220096583       -8.1954257952        2.6438859623
 H        -8.7991717409       -8.5906398788        1.9805184842
 H       -10.7362211187       -5.7315877910        3.7028192626
 H        -9.7786408523       -4.3694757395        2.8255612580
 H       -10.9231539327       -5.4974627851        1.9803381202
 H        -6.2147771933       -4.3790597910       -0.7612782270
 H        -7.8469879736       -4.3114845640       -1.2383217392
 H        -8.7385316690        0.7814166887        0.9424059605
 H        -7.5067074628       -0.2502310360        1.7043993598
 H        -7.5570143514       -2.7491924625       -2.7095918030
 H        -7.0351126584       -1.0321886577       -2.8940678765
 H        -8.6880938658       -1.5401976418       -2.9771377622
 H        -9.2479880443       -1.8290282334        0.6340161283
 H        -9.8548451515       -0.6884918931       -0.6328357348
 H        -9.6632485111       -2.5637965849       -1.0774488064
 H        -7.5546161490        2.6904089808        1.3505658092
 H        -6.2535515416        1.9757334392        0.3893864236
 H        -2.6913053330       -0.1081290127        1.7121690932
 H        -4.4388343247        0.0150730846        1.6347780451
 H        -5.0644861453        4.2761576583        0.8461579502
 H        -3.8636726297        4.6765589659        2.0632042328
 H        -5.5604478812        4.5587031834        2.5023409243
 H        -3.1101723709        3.5227884497        3.4679406957
 H        -4.4413074532        2.8843603799        4.4766635496
 H        -3.2299041603        1.8141690675        3.8397526207
 H        -3.3654358847       -1.1007788255       -0.3432351671
 H        -4.3902257452        0.2254946854       -0.8415416491
 H        -0.7727349996        3.9721942913       -3.2803616911
 H        -0.7176226598        4.0013445891       -1.3763194833
 H        -1.6274697608       -0.3312138730       -3.5709677264
 H        -1.9251784632        1.1585417357       -4.5035083461
 H        -3.2084292127        0.1777576063       -3.8712536506
 H        -2.9789423504        3.2445497446       -3.0753278628
 H        -4.1687782263        2.1584962990       -2.7826493840
 H        -3.3863446307        3.0149346246       -1.3449368907
 H         1.6073381847        4.6697083492       -2.8855113247
 H         1.6952164538        2.9987307975       -3.1287656396
 H         4.5766559602        2.7502890512        0.4867002152
 H         5.2789488576        4.0344823334        1.3270112182
 H         4.4654093553        3.6057408981       -1.4183966571
 H         5.0023821010        5.2747353981       -1.4041456065
 H         3.9449662139        4.7105690805       -2.5867613300
 H         2.0833355483        6.4484367222       -1.6157652188
 H         1.7230644224        6.3283776389        0.1529148861
 H         3.3073900535        6.7104197599       -0.4098330295
 H         4.6869180080        2.9811849144        3.5044695931
 H         3.1602274235        3.0646522932        3.0766792452
 H         2.6869994094       -2.7102121775        2.1117769557
 H         1.7429625295       -2.1453370354        0.8732282604
 H         5.2848361593       -0.5573327265        4.2326981681
 H         4.8687321221       -1.8605140371        3.2349579419
 H         3.9929275514       -1.5380131470        4.7416393265
 H         1.7898859954       -0.4107572330        4.5330406760
 H         3.0711422713        0.4943267553        5.3658534610
 H         2.0483698567        1.2680559161        4.1718627164
 H         4.0961723382       -3.2124324312        0.3267274917
 H         4.7156222323       -1.4212153409        0.5547058760
 H         6.4410172203       -3.4473434657       -3.4395672005
 H         6.3140157161       -1.8528616660       -4.1446055186
 H         4.2179906751       -4.3966132519       -0.9534004162
 H         4.1394028718       -4.7652795387       -2.6027434928
 H         2.6929273243       -4.0831250169       -1.9182772191
 H         4.3045599288       -2.4239188591       -4.4179914152
 H         2.8138636574       -2.5851982201       -3.5883311335
 H         3.6413217739       -1.0263337173       -3.5087156729
 H         8.5146044995       -2.2039672075       -2.0060156566
 H         8.6352980387       -2.8294214275       -3.7763431603
 H        11.2272199250        2.5468972160       -3.6756290821
 H         9.8455757522        2.7646419970       -4.4420187504
 H        10.0777511935        3.6399923374       -2.8244401069
 H        10.8112207348       -1.8704573291       -2.3881879805
 H         9.9491973341       -0.9228848864       -1.1809176980
 H        11.6420046532       -0.5868194143       -1.9406914341
 H        11.8278993610        0.4827563207       -4.0103657233
 H        11.3177179966       -1.0181170336       -4.7958027749
 H        10.5906241249        0.4254134263       -5.3119659255
 Na        1.2494844810        0.4821711760       -0.4466706210
