155

 C        -7.6900020388       -5.4072890641        3.8887739572
 C        -7.9914911009       -6.6268234166        2.9220062887
 C        -9.2075363164       -6.6274055579        1.9085432847
 C        -8.8416660357       -5.7251821384        0.5161443524
 C        -7.7321432042       -4.7360007112        0.5383077453
 C        -9.6145002904       -8.0349842583        1.5791995505
 C       -10.4160369279       -5.9360909884        2.4217262263
 O        -7.2925979689       -7.5791896551        2.9292210161
 O        -9.4050384748       -5.9817690428       -0.5149539126
 C        -7.4381437590       -4.2010739841       -0.9230879060
 C        -6.7437880071       -2.8169004751       -0.8228495272
 C        -7.7515344992       -1.5502520600       -1.0978905138
 C        -6.9332356629       -0.2438666166       -0.6712560048
 C        -6.8962565499        0.0454018816        0.8785061442
 O        -5.5171520072       -2.5864730979       -0.7350648856
 O        -6.2953426638        0.3955453187       -1.5058144590
 C        -7.9024308246       -1.4816595549       -2.5793525017
 C        -9.0765642841       -1.7022710765       -0.2193946662
 C        -6.3279925389        1.4868621510        1.2665268172
 C        -5.5666028338        1.4821887718        2.5873255770
 C        -4.3013880031        2.3468380392        2.6536197978
 C        -3.1407277817        1.6514558581        1.7591371312
 C        -3.3397813515        0.0806748942        1.3285519539
 C        -4.4128217897        3.7966110556        2.1299932335
 C        -3.6888386546        2.4910266722        4.0572140944
 O        -5.9888417230        0.9702485604        3.6022859026
 O        -2.3994182257        2.3082005784        1.1059835467
 C        -3.5032322772        0.0084202132       -0.1815376974
 C        -2.2085655059        0.4714278977       -0.8688618550
 C        -2.2737211904        1.3391189925       -2.2041861097
 C        -0.8437888219        2.0526093074       -2.4178294235
 C        -0.4947393089        3.5084832156       -2.1996419936
 O        -1.1434210829        0.0341634505       -0.4436900900
 O         0.1115660530        1.3243571539       -2.7985887866
 C        -2.4637958458        0.5890302960       -3.5667861133
 C        -3.4651344340        2.4400914203       -2.1464676386
 C         1.0278922963        3.8272256411       -2.3102615957
 C         1.8878114932        3.6211504626       -0.9534820714
 C         2.9302965720        4.7999859474       -0.5205404912
 C         3.2081601461        4.5143797222        0.9642605546
 C         4.2723034648        3.4133176429        1.4407973174
 C         4.2147249725        4.4925552852       -1.3611265890
 C         2.5279988110        6.2813500538       -0.7269283565
 O         1.9650112669        2.5706188753       -0.4388817025
 O         2.5571860743        5.0814435773        1.8291326874
 C         3.7793914687        2.5598094670        2.6605735725
 C         4.3363414810        1.1035501830        2.6107721610
 C         3.4369843022       -0.0279114310        3.3709126750
 C         2.4289047287       -0.3974127548        2.2205584457
 C         2.4789225465       -1.7990509738        1.5192249369
 O         5.3809362986        0.7215372105        2.0742700175
 O         1.6259879074        0.4555022253        1.8443749968
 C         4.3856227964       -1.1254837019        3.7739151959
 C         2.6083779102        0.6408361238        4.5543791433
 C         3.5451288166       -1.8964475772        0.3611960907
 C         3.2610491934       -1.9117818968       -1.1506322534
 C         4.3340813014       -2.5546233114       -2.0110885781
 C         5.7780342541       -1.8793562645       -1.8096267575
 C         6.8737018965       -2.3947958794       -2.9152107648
 C         4.3509184637       -4.0445038703       -1.6927900887
 C         3.9187686806       -2.3629871092       -3.5054027329
 O         2.3972322130       -1.2484563334       -1.5953883727
 O         6.0348284932       -1.0018121325       -1.0237390505
 C         8.2092975372       -1.6543972818       -2.8319144901
 C         8.5566256756       -0.3896203118       -3.5471665591
 C         9.7382145743        0.3714587610       -3.1537883845
 C         9.1078245877        1.7320768766       -2.4222932927
 C        10.0476879496        2.8684078940       -2.2400057544
 O         7.8810072247       -0.0179824001       -4.4792916002
 O         7.9695147297        1.7520253883       -2.0777024742
 C        10.6970651166       -0.3478011024       -2.1403390972
 C        10.5619237749        0.7140514500       -4.3745430707
 H        -6.7762055808       -5.4345908673        4.5023170962
 H        -7.7074110111       -4.4304969240        3.4221979819
 H        -8.4794164140       -5.3754949037        4.6277162836
 H        -7.9198227949       -3.8550754377        1.0795955295
 H        -6.8365962417       -5.1599360043        0.9892550181
 H        -9.9830410629       -7.9926644707        0.5579922452
 H       -10.3685107082       -8.4094731149        2.2555345285
 H        -8.7122343316       -8.6889037894        1.4996690957
 H       -10.9580125912       -6.5067395504        3.2553374408
 H       -10.2822623073       -4.8653123809        2.6629254600
 H       -11.1872621838       -5.9375882424        1.6507447186
 H        -6.8064138156       -4.8909817484       -1.5194898327
 H        -8.3994465503       -4.2508702702       -1.4146766482
 H        -7.8479330967       -0.0030357769        1.3880142904
 H        -6.2956853311       -0.6498795129        1.2802569637
 H        -8.7227326068       -0.7481164640       -2.7277333733
 H        -8.3346044975       -2.3430073165       -3.0038411875
 H        -7.0318107285       -1.2268461759       -3.1813016938
 H        -8.9174672169       -1.9336055613        0.8465971589
 H        -9.6733452209       -0.8038710695       -0.3549331621
 H        -9.6634060060       -2.4392126541       -0.8053979168
 H        -7.1182144883        2.2401902630        1.3097464606
 H        -5.6119045180        1.9257510817        0.4796939289
 H        -2.4337005799       -0.5904828777        1.5377305661
 H        -4.2440056078       -0.3000580751        1.8828681782
 H        -5.1324027523        3.8016414294        1.2968752181
 H        -3.4339339713        4.1844244740        1.8892846046
 H        -4.7719191629        4.5763489321        2.7949630205
 H        -2.8917334698        3.2143138690        3.9632344494
 H        -4.4055035707        2.9529157756        4.6470798215
 H        -3.2070401584        1.5516250018        4.3694220314
 H        -3.6150486702       -0.9656286313       -0.5511506977
 H        -4.2326597398        0.6922076126       -0.5394890959
 H        -1.0361906363        4.2550929400       -2.8038677062
 H        -0.8217867433        3.7748586342       -1.1655770939
 H        -2.0588610902       -0.4113672496       -3.5845790629
 H        -1.9001707971        1.0687307406       -4.3646679636
 H        -3.4952510337        0.5713730633       -3.8774812853
 H        -3.1527946669        3.1325202841       -2.8845423601
 H        -4.4474727976        1.9615577278       -2.3070433138
 H        -3.5357796712        2.8624258041       -1.1613185542
 H         1.3599137713        4.7297808330       -2.8883619569
 H         1.4426276816        2.9934503120       -2.9438606270
 H         4.5413822225        2.6442319821        0.6872010301
 H         5.2452487786        3.9154785316        1.5498590263
 H         4.4754565389        3.4387206929       -1.5782274572
 H         5.0546507473        4.8345325765       -0.9029933476
 H         4.1474712199        4.9610526998       -2.3223137430
 H         2.1203431251        6.3735999070       -1.7540938753
 H         1.8235275298        6.4917347998       -0.0164756190
 H         3.3765821627        6.9052784948       -0.6076736741
 H         4.0304987944        3.2487822321        3.5067163872
 H         2.7313390479        2.4935743355        2.4215268631
 H         2.9044552268       -2.6272173840        2.1126545035
 H         1.5004605073       -2.1484954220        1.1684549619
 H         5.3596144663       -0.7592882894        4.0852587275
 H         4.5552001561       -1.6995969545        2.9011943352
 H         4.0006055441       -1.8354216754        4.4836446481
 H         2.6375334260       -0.0216395382        5.4859206935
 H         3.1375912271        1.5447726885        4.8897947263
 H         1.5887865467        0.7613876951        4.2325340132
 H         4.1341267296       -2.7652390816        0.5142918993
 H         4.2928283547       -1.1106812182        0.3990229795
 H         7.0271970982       -3.4633592286       -2.8712551582
 H         6.3853289889       -2.1912354469       -3.8661640312
 H         5.2334268150       -4.3906526633       -1.1533345330
 H         4.1708392860       -4.6200036970       -2.6148385192
 H         3.6359583191       -4.2342164196       -0.8832771814
 H         4.7082778458       -2.2564175370       -4.2839247967
 H         3.2213246328       -3.1638201347       -3.7318069480
 H         3.5515410781       -1.3239087943       -3.5490291119
 H         8.4457147239       -1.5636094025       -1.7675345614
 H         8.9847908709       -2.3918488592       -3.1633149296
 H        10.9194594710        2.5682329423       -1.6234806112
 H        10.4697914422        3.0861497388       -3.2127660708
 H         9.5772027444        3.7786822025       -1.8628902343
 H        10.9672555700       -1.4335637140       -2.4664553968
 H        10.3078379850       -0.5407837184       -1.1079665397
 H        11.5751179661        0.2527273635       -1.9318476663
 H        11.4564432323        1.3306438763       -4.0632780722
 H        10.9873770240       -0.2338546773       -4.6795073992
 H        10.0798529972        1.3031027375       -5.1499988733
 Na        1.3206528494        0.4073023236       -0.4212463412
