155

 C         0.8749444842       -7.9861090082       -1.1505955409
 C         1.5627537883       -8.1059667954        0.2048509600
 C         3.0770025810       -7.6530259415        0.3533850177
 C         2.8127844457       -6.0530547675        0.7827749286
 C         2.4165431131       -5.8003264908        2.3025514383
 C         3.8663791340       -8.3053071558        1.5287822570
 C         3.9119619478       -7.6502505951       -1.0194186036
 O         1.0658625387       -8.6968109187        1.1751126496
 O         3.0962945901       -5.1520721278        0.0483134105
 C         1.0383600750       -5.2272671868        2.1766658610
 C         0.7664255067       -4.1496624745        3.3051876030
 C        -0.1770249530       -2.8832548982        2.9114372273
 C         0.6360653548       -1.7638040530        2.2827159927
 C         1.5893545771       -2.1839208463        1.1424823019
 O         1.4090824942       -4.1713214691        4.2976211308
 O         0.6011585553       -0.6074213921        2.7371869384
 C        -1.2813336079       -3.3028312701        1.9321836136
 C        -0.8396762242       -2.2451128086        4.1912968029
 C         2.8228884807       -1.2957393445        1.1538541686
 C         2.4069318446        0.0119459889        0.5273347528
 C         2.6663205037        1.3811072496        1.2464055566
 C         3.4739245483        2.2971850610        0.1840358933
 C         4.8598737654        2.7075428992        0.8198901303
 C         1.2321276704        2.0445837995        1.4180078166
 C         3.3036761991        1.3064361648        2.6763216747
 O         1.7591120348       -0.0349611666       -0.4922940114
 O         3.0530943040        2.6280300037       -0.9002962087
 C         5.7985580816        3.3998075752       -0.1723596348
 C         6.2236343023        2.6508894342       -1.3825569305
 C         6.3558961952        3.2730740924       -2.7843291164
 C         5.2239035137        2.8353340094       -3.8164034288
 C         5.2322840534        1.3530778003       -4.2212762713
 O         6.2679358943        1.4537119628       -1.2594006086
 O         4.4921682021        3.7142086076       -4.2895914938
 C         6.2301435308        4.8276905871       -2.7111600998
 C         7.8192170284        2.9022291541       -3.4328002277
 C         4.1070917706        0.9898141623       -5.2628448689
 C         2.7566564111        0.8366539002       -4.5922028928
 C         1.4811045239        0.7599992025       -5.4647476650
 C         0.3104327802        1.7010130364       -4.9436634156
 C         0.3891077437        3.1643985873       -5.4688268344
 C         1.7546630345        1.0502089552       -7.0190065747
 C         1.0482257591       -0.8146331352       -5.2938421912
 O         2.6345375768        0.6478932772       -3.3894532224
 O        -0.6427326671        1.3052725265       -4.2615618039
 C        -0.4523387479        4.2297617314       -4.7321512099
 C        -0.5144265484        3.9382907829       -3.2844013764
 C        -1.8219005881        3.9392609001       -2.4778488357
 C        -2.0664105014        2.4668971447       -1.9061531036
 C        -3.4100453255        1.7688651228       -2.0274346911
 O         0.5850062801        3.6860496180       -2.7342349956
 O        -1.1303167902        1.9988071018       -1.3623903959
 C        -1.4171505756        4.8846838516       -1.2802902421
 C        -3.0239340625        4.5791770416       -3.1737382646
 C        -4.2102570060        2.1238245129       -0.7933114716
 C        -3.8846541013        1.3162682453        0.4070975350
 C        -4.4544487200        1.8455318511        1.7860298772
 C        -5.9533654214        1.4608342216        1.5652426219
 C        -6.6068367730        0.0926422556        2.0589720378
 C        -3.8333272610        1.0289365862        2.9126970193
 C        -4.2587902500        3.4015798738        2.0151281162
 O        -3.1421089886        0.3247938152        0.3467727535
 O        -6.5802451138        2.3697708517        1.0778565876
 C        -8.0012140265        0.3864412577        2.6872818545
 C        -8.4268462061       -0.7328465481        3.6427730239
 C        -9.9100645395       -0.5613478124        4.3464472745
 C        -9.6874930848        0.3946553254        5.5290066736
 C        -8.7828200511       -0.1659270520        6.5972879110
 O        -7.6755003730       -1.6417144103        3.9335985438
 O       -10.2171710596        1.4753770797        5.4722552157
 C       -10.8812271469        0.0404826750        3.3134764850
 C       -10.4533568392       -1.9689719711        4.6101003935
 H        -0.2402064752       -7.9451597928       -1.0963028385
 H         1.2313060740       -7.3945509378       -1.8638067662
 H         1.0036371810       -9.0077296931       -1.5737062285
 H         2.5461950444       -6.7713543848        2.7726129719
 H         3.0782772640       -5.0034620159        2.6477160253
 H         3.1921792270       -8.6815803857        2.3282721122
 H         4.4533891677       -7.6099848355        2.1020856977
 H         4.4400897765       -9.1423518418        1.2587233443
 H         3.7441440857       -6.5876462164       -1.4178875739
 H         4.9970648716       -7.8020842998       -0.8326854352
 H         3.5568160829       -8.3603201382       -1.7626202347
 H         0.9590377702       -5.0078134955        1.0940118626
 H         0.4124337457       -6.0627064985        2.2497053883
 H         1.8184799266       -3.2634209145        1.1887943285
 H         0.9696581054       -2.1587194323        0.2119896747
 H        -1.8118970038       -2.3650778765        1.7897036065
 H        -1.9840056659       -3.9585625234        2.3695171534
 H        -0.9704315938       -3.6917646579        0.9400181801
 H        -1.3744086223       -3.0562861994        4.7653284702
 H        -0.1105941104       -1.8680244079        4.9178374570
 H        -1.5602592166       -1.4664555458        4.0157584580
 H         3.7135362115       -1.5517646614        0.5968649800
 H         3.1519989422       -1.1974112986        2.1496319789
 H         4.6262785260        3.4108350322        1.6376275578
 H         5.2662667417        1.7594296960        1.1934165481
 H         1.2186131256        3.1364377161        1.5839078916
 H         0.7539528616        1.6596592742        2.3186590646
 H         0.5830324501        1.8579948179        0.6322287067
 H         2.5329628769        0.8102498605        3.3610605645
 H         4.1494593229        0.5845195540        2.6008645517
 H         3.5267490197        2.2994125052        3.0927612202
 H         5.2407020746        4.2686151782       -0.4729985794
 H         6.7912980412        3.5552350664        0.3009601958
 H         6.2785593854        1.2481902668       -4.6121558939
 H         5.2101415488        0.8172717205       -3.2448270493
 H         7.1184638551        5.2649682663       -2.2268809098
 H         5.3296840059        5.1306515341       -2.2176363500
 H         6.2930019881        5.1728929388       -3.7748398216
 H         7.6831828761        3.0478325264       -4.4901050683
 H         8.5945678743        3.5569810360       -3.1971348038
 H         8.1110060912        1.8802836142       -3.1374739724
 H         4.3496588339        0.1375497421       -5.8373257466
 H         4.0583992566        1.7196351012       -6.1359297902
 H         1.4423795208        3.4006740660       -5.3543055882
 H         0.1674065538        3.1546056161       -6.5318780306
 H         2.4285503711        0.2630692615       -7.4358864107
 H         2.1766577160        1.9801864411       -7.1354397886
 H         0.9284644094        1.1162070236       -7.7220252621
 H         1.3588188285       -1.3289106318       -4.3836315270
 H        -0.0320495322       -0.8454106425       -5.4353202636
 H         1.3565915131       -1.3939581056       -6.1668604861
 H         0.1972297458        5.1440529701       -4.9151087091
 H        -1.4138721799        4.5026358591       -5.2393955793
 H        -3.9988266447        1.9236899951       -2.9148775447
 H        -3.2834821120        0.7269638589       -2.0735129916
 H        -0.6689781485        4.4606023384       -0.5607042031
 H        -2.3532329435        4.9281732410       -0.7458051179
 H        -1.0775070433        5.8209646202       -1.6860304681
 H        -3.9853357425        4.5981807187       -2.6201312967
 H        -2.9088867427        5.6330682849       -3.4427273241
 H        -3.4760242429        4.0649928648       -3.9700671213
 H        -5.2484539121        1.9549396877       -1.0380490431
 H        -4.1248812680        3.1936276002       -0.6483889200
 H        -6.6658760974       -0.6486173590        1.2836580559
 H        -5.9223584809       -0.2936177638        2.7983914297
 H        -2.8348561126        1.4644448009        3.1684668651
 H        -3.7051908077        0.0543854433        2.4211799816
 H        -4.5368629726        0.9577988314        3.7844061560
 H        -3.5557918136        3.8087657755        1.2931001889
 H        -5.1509274170        4.0277916680        2.0929375566
 H        -3.8611138097        3.4495259928        2.9930723392
 H        -7.8784609591        1.2677962812        3.3895273553
 H        -8.8191111743        0.7723608161        2.0676336793
 H        -7.9630874806       -0.6142251794        6.1332042070
 H        -8.4308937451        0.6534796755        7.2191247969
 H        -9.3116894864       -0.9071975041        7.1002071637
 H       -10.7286364202        1.1254323011        3.1052654019
 H       -11.9210805461       -0.0107783490        3.6454404090
 H       -10.9033014384       -0.5107858849        2.3605725933
 H       -11.4730940901       -1.7736340967        4.9838796893
 H       -10.5076751483       -2.5302575643        3.6692375308
 H       -10.0056565411       -2.6775988682        5.3288816919
 Na        1.0162215860        1.5845525757       -1.9210219036
