155

 C        -7.0888053420       -8.5261190855       -0.1964559319
 C        -7.8975276544       -7.4171728753        0.2930582412
 C        -8.8908142294       -6.7132051380       -0.6026221152
 C        -8.4209539552       -5.2566660202       -1.0188692981
 C        -9.0837387582       -4.0239073264       -0.3479551921
 C        -9.1034218492       -7.3921066041       -1.9606081027
 C       -10.2074021319       -6.5814921255        0.2023358232
 O        -7.5832688983       -6.9757915503        1.4012369398
 O        -7.5146468490       -5.1602989409       -1.8335267494
 C        -8.9385477917       -2.8126696975       -1.2731682652
 C        -7.9745033970       -1.8288744214       -0.6137410213
 C        -7.8687385895       -0.3013051897       -1.1095921668
 C        -6.7403519326        0.4703457766       -0.3096161855
 C        -7.0565879073        1.0079232926        1.0762717105
 O        -7.3007396390       -2.1402576252        0.3827987004
 O        -5.6911459720        0.6979789587       -0.7954614414
 C        -7.4515417253       -0.3132458995       -2.6509908628
 C        -9.3679698714        0.3466976269       -0.9554247992
 C        -5.7520572184        1.0717269262        1.9559632610
 C        -5.4765938613       -0.0598313641        2.8749081412
 C        -4.1203520476       -0.9149880357        2.6620206463
 C        -3.6622419364       -0.8726703774        1.1979736241
 C        -3.7135969495       -2.1806201918        0.3933420410
 C        -3.0408129247       -0.2240371170        3.4672209125
 C        -4.5021890477       -2.2967995477        3.1562652278
 O        -6.1999826254       -0.2124185266        3.8516046984
 O        -3.3322473290        0.2165175423        0.7095350561
 C        -3.0464489562       -2.0700582671       -1.0143651727
 C        -1.8995133953       -1.0771100027       -1.1272267298
 C        -1.6857157569       -0.0723356737       -2.3172337166
 C        -0.8200461684        1.2882959433       -2.1894254379
 C        -0.9544202379        2.0739766793       -0.8256312922
 O        -0.8769328050       -1.2614132248       -0.3550040686
 O        -0.2511058685        1.6687638346       -3.1772660704
 C        -0.9726194758       -0.9417702383       -3.2716095352
 C        -3.0201099029        0.4528704661       -2.9985151220
 C         0.0138730349        3.1879816789       -0.5373845671
 C         1.4974739489        2.7721159221       -0.9025127433
 C         2.5514063680        3.9323927348       -1.0634888642
 C         2.7833635295        4.0991970411        0.5717206978
 C         3.8417169282        3.1476812938        1.2375121493
 C         3.9555753861        3.3863430667       -1.8950785316
 C         1.9986713890        5.1540495212       -1.6801547891
 O         1.7954780919        1.6400698578       -1.0084043894
 O         2.2550935795        4.9599748435        1.2298202597
 C         3.5032874353        2.8363501005        2.6511569061
 C         4.3823999150        1.8150618738        3.3086051504
 C         3.6108548288        0.4247145333        3.9874443107
 C         2.9368751506       -0.3023189891        2.8213568408
 C         3.4459755115       -1.6170765864        2.3858746238
 O         5.5743776778        1.9691932933        3.4146856994
 O         2.1481864117        0.3600934467        2.1387886136
 C         4.6424508960       -0.4614156519        4.7515747924
 C         2.6154675879        1.0694801974        4.8925242815
 C         4.5857721458       -1.2407452828        1.3754181977
 C         4.1868611101       -1.7397804480       -0.0277311626
 C         5.3353869707       -1.9571298095       -1.0235896509
 C         6.1565262058       -0.6075887194       -1.3042804260
 C         6.6484556881       -0.1515058346       -2.6605461828
 C         6.3294541105       -3.0782329187       -0.4429571333
 C         4.5734638944       -2.5190773405       -2.3478088966
 O         3.0388782024       -1.9325560343       -0.3954796968
 O         6.2596109784        0.2563931898       -0.4234989600
 C         8.0135935496        0.6982369419       -2.4326901491
 C         7.8359536851        2.2409483320       -2.8929683501
 C         8.9676704747        3.2239467360       -2.7150087458
 C         8.8523599173        3.7003815598       -1.1478649613
 C        10.1201780594        4.2734737953       -0.4112455679
 O         6.8142417996        2.6967160045       -3.3708080399
 O         7.7199373067        3.8432046716       -0.6966080765
 C        10.3613286481        2.6580426925       -3.0301716520
 C         8.6111733653        4.6048845964       -3.4686767182
 H        -6.5769474264       -8.6715470581        0.6977903197
 H        -7.5319164347       -9.3914128956       -0.7105850694
 H        -6.3595669876       -7.9424759544       -0.7940713900
 H       -10.1109140649       -4.2129490509       -0.1153110279
 H        -8.6363064108       -3.8803915256        0.6332712513
 H       -10.0749016344       -7.1919649532       -2.3983297874
 H        -8.8313263810       -8.4780664613       -1.9339352594
 H        -8.3341528981       -7.0006398571       -2.6114984008
 H       -10.6509698077       -7.5111621684        0.3938694521
 H       -10.0399440235       -6.1581677749        1.1727463718
 H       -10.8824256032       -5.9449318937       -0.4125035029
 H        -8.5040508399       -3.0659529194       -2.2923467479
 H        -9.9013781344       -2.3266035362       -1.5496849902
 H        -7.3724527087        2.0068453250        0.8563522047
 H        -7.9520881455        0.5559501672        1.6105403763
 H        -8.1877403665       -0.5974253432       -3.3624849780
 H        -6.6321146042       -0.9758866127       -2.6410910833
 H        -7.1567449675        0.6787120023       -2.9727942467
 H        -9.8425914728       -0.0667565925       -0.0274404912
 H        -9.3288948572        1.5119672725       -1.0680660805
 H       -10.0820008460        0.0846591789       -1.8426313014
 H        -5.8292246347        1.9218752999        2.6281411071
 H        -4.9191043699        1.2208164206        1.2354519163
 H        -3.2676323882       -3.0129228419        0.9856684704
 H        -4.7029924479       -2.6224144987        0.2859453711
 H        -2.2721244395       -0.9547785960        3.7752050370
 H        -3.6564450629        0.2028315221        4.2729761219
 H        -2.5072750218        0.5183853351        2.9014728268
 H        -3.8383699643       -3.1454602185        3.0287208803
 H        -4.8159174886       -2.2458786572        4.2483019940
 H        -5.3611279673       -2.6519436373        2.6126088697
 H        -2.7150287165       -3.0653598559       -1.2120483468
 H        -3.8172888954       -1.9451824861       -1.7446351268
 H        -2.0292501673        2.3154597597       -0.6810939719
 H        -0.8034475651        1.2509069505       -0.1241612568
 H         0.0908561626       -1.0965749379       -3.0681704298
 H        -1.0389301208       -0.4927092508       -4.2367091627
 H        -1.4798587966       -1.8677513272       -3.4216270954
 H        -2.8342873913        1.2414592101       -3.7478881232
 H        -3.5416058079       -0.3566980858       -3.5090271439
 H        -3.7551358812        0.8334802213       -2.2725614589
 H         0.1326277279        3.5326041929        0.5510196049
 H        -0.2289868568        4.1092454413       -1.1346857724
 H         3.9016522757        2.2388216945        0.5556082484
 H         4.7012685922        3.8018382713        1.2706230698
 H         4.1234662256        2.3447200207       -1.5072794280
 H         4.8553814706        3.9650387400       -1.8465625175
 H         3.6054681698        3.2926525512       -2.8699760616
 H         1.6788923145        5.0092467095       -2.7202928678
 H         1.2558269399        5.7264191588       -1.0975261613
 H         2.7768644043        5.9777767287       -1.6228590751
 H         3.8953751149        3.6981523625        3.2704904128
 H         2.4625114291        2.6917030397        2.9386626376
 H         3.7820652986       -2.1599316725        3.2972470745
 H         2.6731196040       -2.3062599443        1.9605464377
 H         4.9735574760        0.1963048596        5.4977183628
 H         5.4642871598       -0.7929963368        4.1300964966
 H         4.2252701766       -1.3243121874        5.2398517524
 H         2.0542400152        0.3967775784        5.5127706087
 H         3.0759371529        1.6324226752        5.7072636279
 H         1.8561611739        1.7748534975        4.4658231101
 H         5.6075169463       -1.6125023148        1.5821990273
 H         4.7528440605       -0.2295649354        1.3500847922
 H         6.6969991819       -1.0610350601       -3.3038094708
 H         5.9497843528        0.4570964289       -3.2505230083
 H         7.3058021393       -2.7119966793       -0.0706689150
 H         6.5510611236       -3.9074684960       -1.1312073791
 H         5.8396746872       -3.3833212240        0.5031385456
 H         5.2444075566       -2.9741144914       -3.0537961092
 H         3.8575872547       -3.2758054208       -2.0299522154
 H         4.2678682027       -1.6965548182       -3.0199024365
 H         8.3901714287        0.6500607011       -1.3934437533
 H         8.8994900161        0.2161365461       -2.9235629159
 H        10.7012306410        3.4342201126        0.0179600431
 H        10.7821916544        4.9004963109       -1.0847965534
 H         9.7172335789        4.9719909995        0.3270717871
 H        10.4842402950        2.3733748174       -4.0238479393
 H        10.5791145917        1.9262142471       -2.2687915604
 H        11.0395247536        3.5144887883       -2.8925266412
 H         9.3221009846        5.3790792992       -3.2265742471
 H         8.6008918136        4.5352731300       -4.5361618243
 H         7.7567135892        4.9957557201       -2.9764822447
 Na        1.1560885740       -0.2667388806       -0.1554452399
