155

 C        -6.5140401004       -7.8962259223       -0.8046932442
 C        -7.7487629630       -7.2462861202       -0.1534783781
 C        -8.9384484856       -6.8326055762       -0.9491092190
 C        -8.5458968475       -5.4202642330       -1.4010101939
 C        -8.9229894235       -4.1062705726       -0.4672760215
 C        -9.0957924222       -7.5469949395       -2.2633050452
 C       -10.2408421178       -6.8040604688       -0.1460747535
 O        -7.6650813616       -6.9563928750        1.0376352459
 O        -7.8483079288       -5.2403073594       -2.3653066957
 C        -8.6524652069       -2.8097637544       -1.3029097726
 C        -7.7611479932       -1.7805483431       -0.4749249789
 C        -7.9197171656       -0.2116977557       -0.9311513047
 C        -6.6648472490        0.4940769286       -0.2284270571
 C        -6.7121953391        1.0694572323        1.1825304029
 O        -7.1324639563       -2.0656522154        0.5451226653
 O        -5.6312040279        0.4548845212       -0.8476924545
 C        -7.7634090809       -0.0577690193       -2.5156208828
 C        -9.1782072200        0.4533777480       -0.4679428444
 C        -5.2851865847        1.1603159045        1.8171991386
 C        -5.1029169086       -0.0255769706        2.7841160351
 C        -4.0353853865       -1.0944388312        2.4543584170
 C        -3.5998731297       -1.1391514377        1.0324232431
 C        -3.4658728979       -2.4792044678        0.3792215970
 C        -2.8713931024       -0.5601473655        3.3867238012
 C        -4.5438693032       -2.4945372307        2.9318415049
 O        -5.7840501133       -0.2016332421        3.7391651312
 O        -3.1855867176       -0.0809420418        0.5325959841
 C        -2.9332828050       -2.4240297921       -1.0474985452
 C        -1.8074708968       -1.4114741703       -1.0940556610
 C        -1.4987642192       -0.4015424815       -2.3006531545
 C        -0.6083687200        0.8670666567       -2.0460918084
 C        -0.7098846661        1.6596345071       -0.7051477049
 O        -0.8770002858       -1.5405358295       -0.2410947776
 O         0.1629946104        1.2487882916       -2.9233436052
 C        -0.6586404243       -1.3001510477       -3.2856374329
 C        -2.7309193348        0.1336852630       -3.0939179479
 C         0.0727376732        2.9969080143       -0.8874382546
 C         1.6269290763        2.7142692631       -0.9272439484
 C         2.6059672110        3.9749991050       -0.9714727982
 C         2.9447096608        4.0383229922        0.5387758935
 C         3.8190922562        3.0170265905        1.2888906663
 C         3.8168968216        3.7344621019       -1.8847337661
 C         1.8320669878        5.2767938178       -1.4003452599
 O         2.0128197040        1.5879411403       -0.8939695531
 O         2.4501225673        5.0025952548        1.1336589381
 C         3.4193989613        3.0397720768        2.7195214255
 C         4.1697405681        1.9733109499        3.4924486873
 C         3.5559880117        0.5631797531        3.9449464879
 C         2.9705072743       -0.2195420096        2.8162709776
 C         3.0737419799       -1.6948141400        2.5155857665
 O         5.3877249321        2.0631233057        3.5353089446
 O         1.9932487518        0.3611710876        2.3368498537
 C         4.6109634153       -0.2580156634        4.6685074092
 C         2.3741303193        0.9259358416        4.8914467613
 C         4.1832500068       -2.1624700678        1.4388967774
 C         3.9805064172       -1.6751242841        0.0174894817
 C         5.2085728493       -1.6946761098       -1.0753014482
 C         5.7962357677       -0.2072356624       -1.0476806912
 C         6.2021577085        0.4133232703       -2.3702769518
 C         6.3792401655       -2.6544030595       -0.8052252565
 C         4.3852399610       -1.9575378632       -2.3225236927
 O         2.9587554373       -1.2920304245       -0.4453195622
 O         5.9187603404        0.3531644923        0.0454272374
 C         7.5756373959        1.2122226194       -2.0965768010
 C         7.3082873244        2.6090282206       -2.6417737506
 C         8.6181560971        3.4090387135       -2.6511706671
 C         8.8155235419        3.8985708379       -1.0971164252
 C        10.2030379297        4.6345524671       -0.7172363486
 O         6.2848853463        3.0824291769       -3.0660343782
 O         7.9748394099        3.5642473988       -0.3289992501
 C         9.8643526355        2.5322920437       -2.9482347431
 C         8.4873867754        4.5978375773       -3.6077675697
 H        -5.6895969100       -7.6240171202       -0.1637906425
 H        -6.7141139910       -8.9557203457       -1.0706860325
 H        -6.4378901160       -7.4240746339       -1.7953008339
 H        -9.8298930738       -4.1124907419        0.1493131852
 H        -8.1761998845       -4.0671383925        0.3770604027
 H        -9.7435962444       -6.9507028800       -2.9417314384
 H        -9.5831468237       -8.5684358120       -2.1856262144
 H        -8.1633062279       -7.6833053976       -2.7604420461
 H       -10.5896489672       -7.7229783389        0.3323458049
 H       -10.2272651567       -6.0630623091        0.5994020770
 H       -10.9303556411       -6.5599560297       -0.9208672693
 H        -8.1588269443       -3.0924879098       -2.2062103508
 H        -9.5305724837       -2.2766265831       -1.6156082793
 H        -7.1176126760        2.0159866484        1.0909858778
 H        -7.4096745451        0.4917830900        1.7714729602
 H        -8.5680070492       -0.5803000632       -3.0469514424
 H        -6.8351873014       -0.3537670516       -2.8320904489
 H        -7.8193980433        1.0035664518       -2.7677082121
 H        -9.1808853013        0.5250124199        0.6569707731
 H        -9.2724108954        1.4682903169       -0.8625003631
 H        -9.9430440919       -0.0745293540       -0.9387777803
 H        -5.1818300919        2.0769151292        2.3340569874
 H        -4.5526221253        1.0583375133        1.0018005006
 H        -2.8217661468       -3.2209355259        0.9468581006
 H        -4.4571201196       -2.9892569105        0.4655569683
 H        -1.9155067963       -0.9820279611        3.0067724427
 H        -2.9332534471       -1.1114284448        4.3847460795
 H        -2.9936280905        0.5390436799        3.4755862727
 H        -3.7619723282       -3.2442561742        2.8035374144
 H        -4.9441701568       -2.5076801669        3.9907768581
 H        -5.4088166979       -2.8280032432        2.3909930531
 H        -2.4957444799       -3.3266311344       -1.2907272606
 H        -3.7393188147       -2.2742607404       -1.6857964609
 H        -1.7596765594        1.7964858864       -0.3367694910
 H        -0.3586217794        1.0639066506        0.1430391625
 H         0.2562407983       -1.7243085599       -2.8617411438
 H        -0.2631068684       -0.6398068690       -4.0495131675
 H        -1.2388412784       -2.0464232087       -3.8175215694
 H        -2.4725167111        0.7907573479       -3.9286569123
 H        -3.3424481047       -0.6123230177       -3.5503443467
 H        -3.4739463253        0.5101938260       -2.4089752019
 H        -0.2936532125        3.7836069376       -0.1437876457
 H        -0.0559128594        3.3927807197       -1.9353443706
 H         3.3684559237        2.1593399106        0.7868561902
 H         4.8511223012        3.1334564866        1.0828993512
 H         4.0357235815        2.6775602550       -1.5720806461
 H         4.6861350714        4.3857030686       -1.8443222340
 H         3.4044872897        3.6671952550       -2.8963377135
 H         1.3351645425        5.1784460699       -2.3923297741
 H         1.0219278181        5.7291227579       -0.8496072316
 H         2.6815626541        6.0323830756       -1.5181576128
 H         3.7899726600        3.9985884632        3.1693404668
 H         2.3681407520        2.9718797628        2.9211507607
 H         3.3702678540       -2.2538289200        3.4347550588
 H         2.0629258548       -2.1492931883        2.2326719629
 H         5.0264697905        0.3000445900        5.4869997850
 H         5.4055342292       -0.4190215749        3.9575809156
 H         4.2259392815       -1.2145829977        4.9529760304
 H         1.9052141828        0.0933997601        5.4092922986
 H         2.4638318196        1.7344325163        5.6183304951
 H         1.5550231039        1.4645526119        4.3298095782
 H         4.0568723884       -3.2841824744        1.3539553434
 H         5.1605742066       -2.0007106616        1.7298901176
 H         6.2743611122       -0.4088253229       -3.1281949490
 H         5.3416573548        0.9937663436       -2.7897799866
 H         6.2577609805       -3.2607768414        0.1190940687
 H         7.3583722478       -2.1836547834       -0.8694485513
 H         6.4514315754       -3.3148841312       -1.7048846639
 H         4.9320584009       -1.7042526157       -3.2667465433
 H         4.0139496741       -2.9441043117       -2.2500202660
 H         3.6596691445       -1.1872923990       -2.3700365750
 H         7.8840430724        1.2341744915       -1.0130524093
 H         8.4415785500        0.7564831321       -2.6674751770
 H        10.4323425717        4.4046197823        0.3097751627
 H        11.0219799153        4.2968284833       -1.3730968331
 H         9.9413377091        5.6666887466       -0.6968376880
 H         9.7607898141        1.8647284770       -3.8293242510
 H        10.0560721570        1.8218024459       -2.0947522969
 H        10.7052114219        3.2686156131       -3.0713783640
 H         9.1950202845        5.4969405639       -3.3445911403
 H         8.5969917521        4.2871481209       -4.6598955147
 H         7.4527871294        5.0453175221       -3.4876001546
 Na        1.1995259468       -0.2782730587        0.2874029952
