155

 C        -6.4169027908       -7.4218532472       -1.1164110640
 C        -7.6567437944       -7.1476932918       -0.2960851967
 C        -8.9084080796       -6.9009340618       -1.1409896273
 C        -8.6144856789       -5.2822131620       -1.6867973905
 C        -8.6116135944       -4.1648429662       -0.7242378334
 C        -9.1355073269       -7.7945111703       -2.3378120372
 C       -10.1712596917       -6.9131845498       -0.2858557469
 O        -7.7027063252       -7.0115580780        0.9164391749
 O        -8.0228073069       -5.1515295057       -2.7739677131
 C        -8.5654752495       -2.8217502224       -1.3498068529
 C        -7.8455751810       -1.7721570001       -0.3983650850
 C        -7.8213777590       -0.2144798047       -0.8148902252
 C        -6.5491929517        0.5168268068       -0.2771962899
 C        -6.5520613047        1.2909925758        1.0700845456
 O        -7.1946333558       -2.0992675486        0.5688586586
 O        -5.5532414556        0.5361288450       -0.9612222543
 C        -7.7993968285       -0.0042609819       -2.2939368909
 C        -9.2686239174        0.2267581784       -0.1126600817
 C        -5.2160183603        1.2696519729        1.8305142263
 C        -5.0662579293        0.0437671941        2.8056180388
 C        -3.9019592417       -1.1760134581        2.5415444816
 C        -3.3628167466       -1.2442218647        1.0574333418
 C        -3.4308211766       -2.6386019369        0.1848431853
 C        -2.6559297686       -0.8679636049        3.4179150452
 C        -4.5278740364       -2.5046081840        3.0476351985
 O        -5.8212757468       -0.1253964167        3.7601392897
 O        -2.8419292228       -0.3094961701        0.4752675619
 C        -2.6372441020       -2.4012111245       -1.1104203234
 C        -1.4554657791       -1.4021436716       -1.0911335939
 C        -1.2888941067       -0.6350429120       -2.4124971338
 C        -0.4580874419        0.6684420568       -2.1632766784
 C        -0.9837597116        1.6568566840       -1.0532162450
 O        -0.5718805397       -1.5728715993       -0.2808684668
 O         0.4366485202        0.9968741944       -2.8768229552
 C        -0.6429738241       -1.6184950780       -3.3646427080
 C        -2.6387097111       -0.1353182987       -2.9739815368
 C         0.0179725071        2.8387826477       -0.8161163159
 C         1.5056070782        2.6584380364       -0.8734102678
 C         2.4545099837        4.0203226247       -0.8407504110
 C         2.8691020733        4.2373368346        0.6853673957
 C         3.7875181183        3.0314966406        1.2816452248
 C         3.6361798748        3.5982726361       -1.7725538013
 C         1.6986154186        5.2448269339       -1.4086905226
 O         2.0084819040        1.5685907306       -0.5040905622
 O         2.5483880964        5.2543340095        1.2504759655
 C         3.3875147216        2.9136461773        2.7503550126
 C         4.2257647875        1.8004693213        3.4321584087
 C         3.5051741912        0.4926097146        3.9085960176
 C         2.7999390973       -0.2005571175        2.6991906242
 C         2.9511155603       -1.7381067407        2.4554770336
 O         5.3892247448        2.0235519850        3.6761302539
 O         1.9266726358        0.4404075322        2.1736872200
 C         4.5894222062       -0.3539577077        4.6951295092
 C         2.5381696227        0.9302902512        4.9668023217
 C         4.1334001737       -2.0928565839        1.5910284366
 C         3.8932655203       -1.7645144514        0.0558651182
 C         4.9941032069       -1.7300068708       -1.0509366070
 C         5.5202374121       -0.1908063877       -0.9589478527
 C         6.0131906899        0.5962938909       -2.2067746482
 C         6.1103666593       -2.7589683338       -0.7115072589
 C         4.4660400238       -1.9752801981       -2.4236221042
 O         2.7583093015       -1.3035715945       -0.1879133677
 O         5.6777235790        0.2727790650        0.1505327625
 C         7.0916284231        1.5155839006       -1.8713641829
 C         7.2294350385        2.8591448182       -2.6778231286
 C         8.6138839026        3.5456864385       -2.6212971142
 C         8.8990707708        4.0714686197       -1.0630915012
 C        10.1021899110        5.0401363182       -0.9079232147
 O         6.2416762120        3.3879370879       -3.1616632648
 O         8.2423408929        3.5944976535       -0.1350219910
 C         9.7998059216        2.6845717767       -3.1068187474
 C         8.6146596985        4.8539997543       -3.4738928823
 H        -5.6506644879       -7.4534922558       -0.3766934173
 H        -6.6344571516       -8.3691512012       -1.5481011413
 H        -6.1886939580       -6.7948487918       -1.9843149476
 H        -9.3789703067       -4.3227169553        0.0019519577
 H        -7.7714007325       -4.2250431038       -0.0713891265
 H       -10.1580832070       -7.7865874820       -2.6781374717
 H        -8.9106355954       -8.8324912947       -2.2098082166
 H        -8.5119078979       -7.4216678785       -3.2072259791
 H       -10.6887053937       -7.8366511919       -0.3079889682
 H        -9.8677180247       -6.7339394298        0.7710529109
 H       -11.0355771399       -6.2157567086       -0.5947065375
 H        -7.9341305265       -2.8209072332       -2.3011631166
 H        -9.5647685846       -2.4441705067       -1.7231261022
 H        -6.6831723095        2.4216385738        0.7961151627
 H        -7.4448345672        0.9816994580        1.7030344816
 H        -8.7487426204       -0.3049243706       -2.6340386898
 H        -7.0599399616       -0.6312330685       -2.8765348497
 H        -7.4608116625        0.9731511934       -2.6074181468
 H        -9.5382418959       -0.3175346269        0.7981267737
 H        -9.2709309896        1.3230177551        0.2098707552
 H        -9.9636239164        0.1347667469       -1.0487442138
 H        -5.2952605402        2.1637643659        2.5249320221
 H        -4.3601687653        1.3614753353        1.1750895627
 H        -2.9420044876       -3.4505247834        0.6517174779
 H        -4.4261736822       -3.0002837845        0.0150180937
 H        -1.8411993642       -1.4443279243        3.0609255121
 H        -2.7219602915       -1.2735671475        4.3787364789
 H        -2.5603882831        0.1906582041        3.4519462234
 H        -3.6965139363       -3.2260126552        3.1496774236
 H        -4.9969660106       -2.4091114873        3.9981458473
 H        -5.3480775689       -2.9450530406        2.4154527109
 H        -2.1300873577       -3.3267795023       -1.6092307158
 H        -3.4880203867       -2.0450853844       -1.7792001490
 H        -1.9456142435        2.0700878173       -1.3200064831
 H        -1.2169576375        1.1504627571       -0.1164092761
 H         0.4091822964       -1.7360274155       -3.1504795365
 H        -0.6856018819       -1.3699328192       -4.4083233430
 H        -1.1224140163       -2.5730566343       -3.2649628939
 H        -2.3974042968        0.5087308005       -3.7798178702
 H        -3.3823071006       -0.8009965000       -3.4177556417
 H        -3.2426753477        0.3219662446       -2.2123576717
 H        -0.1412321682        3.1397440362        0.2224591360
 H        -0.2048589067        3.7117366373       -1.4784781520
 H         3.6151004006        2.1068904255        0.6720553188
 H         4.8436136328        3.4450199740        1.1013384898
 H         4.0866306438        2.6591673507       -1.5395027362
 H         4.3305017873        4.4057644510       -1.5672694005
 H         3.3631744350        3.6977950737       -2.7877633443
 H         1.2297902290        5.1441706157       -2.3729783119
 H         0.7418869034        5.3670706651       -0.8163682137
 H         2.3245969663        6.1069580899       -1.4365028884
 H         3.2884336811        3.8127321579        3.3272313313
 H         2.3830021187        2.4180784946        2.7545813507
 H         3.1157381327       -2.2782056963        3.3899136896
 H         2.0730338376       -2.1445874257        2.0199038650
 H         4.8738316151        0.2534504622        5.5208319878
 H         5.4495326387       -0.5426105416        4.0572042305
 H         4.0940689159       -1.2628508712        5.0183818312
 H         2.1237982908        0.1043902361        5.5475060061
 H         3.0227535712        1.5953621403        5.6723679467
 H         1.7316309154        1.5701705908        4.7529294727
 H         4.4266741928       -3.0973618111        1.8147773419
 H         4.9506500970       -1.3101768835        1.8389233289
 H         6.3483308046       -0.0824583823       -2.9732540898
 H         5.2859875161        1.2141285706       -2.7474502118
 H         5.5755755813       -3.7017340881       -0.7395783124
 H         6.5620845271       -2.6690130442        0.2919823099
 H         6.9574315501       -2.6658847648       -1.4032882350
 H         5.3101465605       -2.2816554980       -3.0083656070
 H         3.6739620400       -2.7855987029       -2.3368181213
 H         3.9958159337       -1.0454339968       -2.9273639753
 H         6.9972917135        1.8876129343       -0.8324321948
 H         8.0133932135        0.9385574676       -1.9370876375
 H        10.2700635758        5.2093536493        0.1791067013
 H        10.8888933813        4.4139096178       -1.3235785833
 H         9.9046619588        6.0840460862       -1.2569575495
 H         9.4572099098        1.9719160945       -3.8068481835
 H        10.1801716917        2.0622090387       -2.3271953490
 H        10.6166299898        3.2820142423       -3.4787381522
 H         9.5179722514        5.2964889414       -3.3252956165
 H         8.5207574970        4.6357840240       -4.5342899466
 H         7.8418410548        5.5427722216       -3.2908071858
 Na        0.9445355612       -0.3618594360        0.2984700407
