155

 C        -6.0319353103       -6.9018924651       -1.7197104341
 C        -7.3120753083       -6.9413149458       -0.8437321042
 C        -8.7070277347       -6.7354860589       -1.6330110522
 C        -8.7091972474       -5.2033573466       -2.1100922364
 C        -8.2495761692       -4.1956213556       -1.0874312228
 C        -8.8919245451       -7.5190204806       -2.9798290510
 C        -9.8460848528       -7.0146930840       -0.6762254950
 O        -7.2911818152       -7.3398005778        0.3075931131
 O        -9.1389035160       -4.7706976850       -3.1753787386
 C        -8.1060222703       -2.7267502806       -1.6065196715
 C        -7.5438727889       -1.7811289190       -0.5037852308
 C        -7.7717562267       -0.2315464379       -0.6758459793
 C        -6.3939801017        0.4208253218       -0.3251331161
 C        -6.0818461518        1.3393199676        0.8562501689
 O        -6.8286889288       -2.1352211000        0.4006110706
 O        -5.4179653970        0.0543516566       -1.0089512903
 C        -8.3661241924        0.3154847082       -1.9818745446
 C        -8.9524878822       -0.0023444519        0.4638396660
 C        -4.7783006116        1.0194261000        1.4933805677
 C        -4.8098215837       -0.1634500294        2.5408664369
 C        -3.7091481337       -1.3346118044        2.5171193579
 C        -3.1143399143       -1.5208756572        1.0937408774
 C        -3.0926245753       -2.9040115594        0.4606497790
 C        -2.4344705484       -0.9689692608        3.3803192541
 C        -4.3958216976       -2.6001391204        3.0372133558
 O        -5.5546311830       -0.1146479422        3.4991506035
 O        -2.4828813444       -0.5131528796        0.6348688650
 C        -2.8841863566       -2.6323863350       -1.1064750141
 C        -1.5912525805       -1.9014706807       -1.2693759703
 C        -1.3212271421       -0.8396558509       -2.5467891855
 C        -0.3499192463        0.2238877831       -1.9728262029
 C        -0.8648580209        1.5029554199       -1.3202084904
 O        -0.6135894094       -2.1203461916       -0.5028335392
 O         0.8831383411       -0.0234960128       -2.0669153618
 C        -0.4673138471       -1.6431749536       -3.5093037879
 C        -2.5737732427       -0.3253071763       -3.2361236187
 C         0.0612883365        2.6860187860       -1.4503826115
 C         1.1891162158        2.8077116108       -0.4788851600
 C         2.1617329619        4.0028285797       -0.5983167304
 C         2.6870877928        4.2430008624        0.8158396975
 C         3.6283622326        3.0875944949        1.3780834122
 C         3.3269347683        3.7268622109       -1.5679367438
 C         1.2173675442        5.2113239967       -0.9485075821
 O         1.3298922731        1.8941957778        0.2973204380
 O         2.5864328305        5.2158070293        1.5198937963
 C         3.1332459294        2.7786520395        2.8201156854
 C         4.0451109062        1.7258283673        3.4511768481
 C         3.3312991298        0.4378833299        4.0964060665
 C         2.4830482167       -0.2907304318        3.0025961720
 C         2.8739516810       -1.6981355524        2.5198451273
 O         5.2414113949        1.7110466093        3.2982893552
 O         1.3529667721        0.1426464650        2.6868961480
 C         4.4579143539       -0.5153504940        4.5517513255
 C         2.5129345788        0.9530971245        5.3225522287
 C         4.0948219302       -1.7625807257        1.4918436369
 C         3.7758301288       -1.7205736358       -0.0356085343
 C         4.9927214521       -1.3422569878       -0.9201496074
 C         5.4960895075        0.1362976682       -0.4976032391
 C         6.1738957905        0.8695326935       -1.6209105375
 C         6.1702428210       -2.3497062606       -0.7449820322
 C         4.3762918673       -1.3845419755       -2.3680359156
 O         2.6345304421       -1.7399870551       -0.4844783805
 O         5.4201803388        0.6433714923        0.5860870120
 C         6.9348168556        2.1796092923       -1.1695759129
 C         7.0459279803        3.1217710911       -2.3890354007
 C         8.3871539753        3.9653211981       -2.5644437592
 C         9.0488207742        4.4673742749       -1.1714642320
 C         9.7527560873        5.7509863616       -1.0877768305
 O         6.2076290319        3.2104867187       -3.2671490482
 O         8.8932193037        3.7276228172       -0.1920804378
 C         9.4287375014        2.9924942156       -3.1157159381
 C         8.0387955634        5.1493940568       -3.5262231184
 H        -5.2160154890       -7.0580480762       -0.9795185011
 H        -5.9326087143       -7.7929251593       -2.3265401944
 H        -5.8380850557       -5.9959129584       -2.2294827595
 H        -9.1316885747       -4.1259756897       -0.3996010870
 H        -7.3624167799       -4.5310248828       -0.4856442978
 H        -9.5578537049       -6.8415258073       -3.5697376575
 H        -9.3843382816       -8.4703378785       -3.0390346191
 H        -8.0138591863       -7.5986480446       -3.5791435816
 H        -9.7260690125       -8.1167084662       -0.3429727321
 H        -9.8209648067       -6.3559397759        0.2322989143
 H       -10.8352094583       -6.8112626002       -0.9898770691
 H        -7.4524859704       -2.8438867573       -2.4573744701
 H        -9.1031797340       -2.4783686458       -1.9749799240
 H        -5.9855418759        2.3624356707        0.4449659793
 H        -6.8989166618        1.3301083130        1.5198692459
 H        -9.4677898530        0.0573382904       -2.0723075537
 H        -7.9507884724       -0.1209829625       -2.9389726299
 H        -8.4233893187        1.4173575758       -2.0746345897
 H        -8.8556413394       -0.7412281603        1.1917571145
 H        -8.9876154805        0.9874692879        0.8608075264
 H        -9.9171810090       -0.2714242135        0.0227606968
 H        -4.3118502576        1.8453969814        2.0082518595
 H        -4.0051779867        0.7114787719        0.7253741221
 H        -2.1457668553       -3.3879268740        0.7522356607
 H        -3.9783527567       -3.5527350790        0.5422127061
 H        -1.6330490188       -1.6006112924        3.0737203092
 H        -2.6400682470       -1.0687976638        4.4059345134
 H        -1.9975674101       -0.0037790335        3.2023889450
 H        -3.6560489165       -3.3789700216        3.2897580463
 H        -4.8482310413       -2.3657490523        3.9944198600
 H        -5.1129645083       -3.0200873399        2.3370742079
 H        -2.7685480312       -3.5582114767       -1.6421624442
 H        -3.7769664982       -2.1079222744       -1.4491929513
 H        -1.7767706968        1.7233336528       -1.8925477697
 H        -1.1382148387        1.3679601440       -0.2777246913
 H         0.3747050884       -1.9011741245       -2.9290484802
 H        -0.1557959218       -1.0265282896       -4.3531567028
 H        -0.8440370488       -2.5810012659       -3.9362094986
 H        -2.4194895913        0.3586520730       -4.0918929263
 H        -3.0798098710       -1.1946395359       -3.5789019533
 H        -3.2563163406        0.3001492192       -2.6466763285
 H        -0.5127336643        3.5378573127       -1.2115643421
 H         0.3450132645        2.8084542871       -2.4516415160
 H         3.5671992562        2.1948593444        0.7956645473
 H         4.6761301342        3.3093752095        1.3272377195
 H         3.8146322935        2.9091120631       -1.1891051835
 H         3.9555693132        4.5946397672       -1.6541639216
 H         2.8863977567        3.5359801903       -2.6070364912
 H         0.6404572048        5.2650544012       -1.8790574073
 H         0.5378633797        5.3329410644       -0.1235566734
 H         1.7408305772        6.1128080075       -0.8892446272
 H         3.1341780989        3.6938563436        3.4691251089
 H         2.1139076004        2.4182285537        2.7876623528
 H         3.1140949780       -2.3030808008        3.3447699086
 H         1.9682813037       -2.1004994925        2.0625767795
 H         4.9736605392       -0.1565285498        5.4767168191
 H         5.0831553098       -0.5516810594        3.6850473644
 H         3.9842880993       -1.4419389704        4.8626509862
 H         2.0757110134        0.3108456300        6.0740208812
 H         3.0991322730        1.6047518408        5.9403706993
 H         1.6358654460        1.5026116803        5.0393335402
 H         4.5655536035       -2.8001283224        1.6389853880
 H         4.6875390670       -0.8934530610        1.7314247780
 H         6.8585224991        0.1645858862       -2.0608719340
 H         5.3643825790        1.1634216695       -2.2907221839
 H         7.0416306454       -1.7244763373       -0.4436599022
 H         6.3765820549       -2.8914734189       -1.6789918054
 H         6.0294168200       -3.0092914261        0.0842612055
 H         5.1760559822       -1.1712416907       -3.0990490487
 H         4.1578879184       -2.3862007178       -2.7265445811
 H         3.4265294353       -0.8854659371       -2.2428212364
 H         6.3012144524        2.4883586405       -0.3801572593
 H         7.9545917853        1.9238154119       -0.9115778068
 H        10.3142354235        5.9383921190       -0.1452257693
 H        10.3549260815        5.9125830842       -2.0037288639
 H         8.8830851761        6.4443724874       -1.0469582246
 H         9.0839403416        2.3585199795       -3.9631541433
 H         9.7259424414        2.3584739578       -2.3295641247
 H        10.3269504627        3.3704014761       -3.4833994518
 H         8.8192986231        5.8128424587       -3.7505409884
 H         7.8573510808        4.7185690711       -4.4828114624
 H         7.1827374506        5.7217140700       -3.2252828120
 Na        1.0207024454       -0.5912534725        0.5333084803
