155

 C        -6.3402873808       -6.8826254144       -4.6894870195
 C        -6.8860601280       -6.5145045539       -3.2615656423
 C        -8.4263782005       -6.3361194810       -2.9705513819
 C        -8.4435334282       -4.7501015669       -2.6386978267
 C        -8.2218334519       -4.3958444933       -1.1523423653
 C        -9.3716348224       -6.6161587055       -4.1728382883
 C        -8.7944819340       -7.3282435221       -1.8219460484
 O        -6.1290569306       -6.3760332991       -2.2883037172
 O        -8.5501646140       -3.9564971771       -3.5555483744
 C        -8.4542443215       -2.9323568372       -0.9216356684
 C        -7.2988662964       -2.0379248030       -0.5508389021
 C        -7.5445632542       -0.5325133665       -0.1856137567
 C        -6.1898017559        0.2468376748       -0.1573119017
 C        -5.8702984380        1.2493518852        1.0458551508
 O        -6.1788065168       -2.5188648610       -0.5623400601
 O        -5.4219623195        0.0981297612       -1.0600798234
 C        -8.3984732476        0.1044229799       -1.3956240439
 C        -8.4792084534       -0.4849124540        1.0666875899
 C        -4.4202783012        1.0899678357        1.5570286237
 C        -4.2151727901       -0.3955412275        2.1092185815
 C        -2.7236289474       -0.7011137789        2.6513919340
 C        -2.1085972957       -1.4159223297        1.3593601391
 C        -2.6345063522       -2.7529279159        0.8352707224
 C        -1.9600230037        0.6308822074        2.8916358349
 C        -3.0008332338       -1.5886255992        3.8847963171
 O        -5.0486698358       -1.2495127617        2.0693236410
 O        -1.2703158829       -0.8024685044        0.7016338452
 C        -2.0419256034       -3.2563633701       -0.5108770213
 C        -0.7894623822       -2.5770649808       -1.0333681952
 C        -0.9199800619       -1.6550250199       -2.3961780098
 C        -0.1891510699       -0.2415954463       -2.1352680316
 C        -0.9079258303        1.1273987959       -2.3822011320
 O         0.2166085076       -2.7867201464       -0.5036114704
 O         0.9906877767       -0.2775491826       -1.8875512347
 C        -0.2972830049       -2.5311794347       -3.5032958292
 C        -2.4540999911       -1.5267538619       -2.7317260914
 C        -0.0314540848        2.2991405092       -1.8109857744
 C         0.4456483008        2.3618833823       -0.3568899979
 C         1.0143450380        3.7722928307        0.0946935586
 C         1.1631237661        3.5958181150        1.6944964908
 C         2.2454777087        2.6682569003        2.1977426335
 C         2.3770800098        3.9240897818       -0.6309028085
 C         0.0118598117        4.9149980581       -0.2042340171
 O         0.3973575193        1.4753783672        0.4495141623
 O         0.3766678281        4.1067683916        2.4660953034
 C         1.7086846161        1.7132971269        3.2429072570
 C         2.9098241528        0.9329047050        3.9983636124
 C         2.6311441597       -0.5571550636        4.5684253513
 C         2.2087237908       -1.2216271459        3.2123631268
 C         3.2136438605       -2.1204485338        2.4247463318
 O         3.9038850597        1.6027042805        4.3504597977
 O         1.0673932227       -1.0905305048        2.7767323964
 C         3.8522259246       -1.1190607108        5.3284242522
 C         1.5126309216       -0.3514021201        5.5058099562
 C         4.6080594246       -1.6401198106        2.0096686535
 C         4.3675547976       -0.6460917572        0.8197891509
 C         5.3074072588       -0.6416456545       -0.3720709631
 C         6.1304437243        0.6391174852       -0.4512217365
 C         6.4354763963        1.3477879450       -1.8036572200
 C         6.2892636952       -1.9227464785       -0.5302740868
 C         4.3507396422       -0.9061298813       -1.5972925891
 O         3.3759375172        0.0670172990        0.8882242429
 O         6.4547675017        1.1496161961        0.6155964728
 C         7.5286868775        2.3496823606       -1.6627476716
 C         7.0704788493        3.7697574833       -2.3410748994
 C         8.1179153572        4.8025431530       -2.7690771909
 C         8.5894127632        5.6253653797       -1.4339186047
 C         7.6780203088        6.6652619082       -0.9403781598
 O         5.8405614571        3.9591540722       -2.4273048936
 O         9.5373520642        5.2068042913       -0.8077099964
 C         9.4290382624        4.3054000430       -3.3718580488
 C         7.4390775425        5.7470637140       -3.8269098568
 H        -5.2951229644       -6.9024354136       -4.5543263896
 H        -6.6948124705       -7.8087929742       -5.1368313128
 H        -6.6797315552       -6.2524724167       -5.5501295271
 H        -8.8465642510       -5.0777132787       -0.4906521083
 H        -7.2121455911       -4.7385024112       -0.8247527154
 H       -10.2728750684       -6.0889599745       -3.9935037420
 H        -9.5682103402       -7.6891475179       -4.1790343327
 H        -8.9691516759       -6.3178995274       -5.1678402842
 H        -8.8429400279       -8.2796907214       -2.3574297185
 H        -8.0771037679       -7.4979957625       -1.0378722592
 H        -9.7356024377       -7.0812378709       -1.3188904477
 H        -8.9180270052       -2.6011328150       -1.8062964533
 H        -9.2605078383       -2.8313850808       -0.1794959492
 H        -6.0082890096        2.2536315935        0.7000791193
 H        -6.5427899512        1.0290606058        1.9321252244
 H        -9.4927377309       -0.1918988494       -1.3561449346
 H        -7.9709412228       -0.2225811918       -2.3132376998
 H        -8.5820766498        1.2359530416       -1.4195214833
 H        -8.2815989781       -1.2713338704        1.6953984253
 H        -8.3910906393        0.3641501278        1.6419660823
 H        -9.4735365255       -0.5631992729        0.7907648516
 H        -4.3854368718        1.7598177790        2.4023917799
 H        -3.7024271787        1.2893618174        0.8063221174
 H        -2.4147409552       -3.5020128744        1.6287366103
 H        -3.7139034639       -2.8371068616        0.9002465168
 H        -0.8928326993        0.4731198070        2.9765364378
 H        -2.2956495372        1.1006152248        3.7763303985
 H        -1.9792158663        1.3923280840        2.1532711929
 H        -2.0948182038       -1.9207090901        4.3939461097
 H        -3.4628090292       -0.8808870677        4.5816904749
 H        -3.6953251598       -2.3807892033        3.5672575628
 H        -1.6921227195       -4.2346206116       -0.3456750502
 H        -2.8768575493       -3.3215062546       -1.1721440813
 H        -0.9918532687        1.2641705031       -3.4392556253
 H        -1.9603679336        0.9954698703       -2.0054677992
 H         0.7697663172       -2.7212786990       -3.3026123924
 H        -0.4511659491       -2.1028246107       -4.4675800130
 H        -0.8410732857       -3.4436269403       -3.4143323107
 H        -2.5099152846       -0.6496418074       -3.3334220882
 H        -2.8345831317       -2.3873079197       -3.2755101453
 H        -2.9846765653       -1.2075277545       -1.8689837917
 H        -0.3919869168        3.1469496102       -2.3910792957
 H         0.8984124104        1.9585447830       -2.3559775015
 H         2.9779163852        2.2639462926        1.4904054176
 H         2.8262861100        3.4266461697        2.7534511684
 H         2.8893106638        2.9208415174       -0.5819587508
 H         2.9520680084        4.8130747633       -0.3411596411
 H         2.2579359663        4.1117764757       -1.6530581565
 H         0.1242030513        5.0260807421       -1.2683553221
 H        -0.9147638286        4.5860561898        0.0695795653
 H         0.1768737564        5.8918139718        0.3384383275
 H         1.2407449214        2.3808190470        3.9148740229
 H         0.9086795458        1.0793330217        2.8104922831
 H         3.4816688257       -3.0393602754        2.9834568348
 H         2.6969205775       -2.3811430708        1.4728024609
 H         4.1083880782       -0.3207921281        5.9965681001
 H         4.7735477686       -1.2706211564        4.7325361346
 H         3.6659984979       -2.0856396142        5.8508831138
 H         1.2785169464       -1.2415567562        6.0797584934
 H         1.7977744740        0.3777569843        6.2587108139
 H         0.6170219234       -0.1679499370        4.9630710841
 H         5.2118186283       -2.4123340120        1.7571564789
 H         5.2089621843       -1.1339375242        2.7669139461
 H         6.6574333084        0.5795693222       -2.5079922822
 H         5.5510576019        1.8342651803       -2.2376128996
 H         5.7707699113       -2.7400768994       -1.0222698337
 H         6.7561363591       -2.3339148443        0.3456202385
 H         7.1789613894       -1.7374083558       -1.1847625546
 H         4.9149002921       -1.2055412799       -2.5485970220
 H         3.6376891637       -1.6916777970       -1.5200952517
 H         3.7587534627       -0.0514083716       -1.6959206938
 H         7.9313856476        2.4821512895       -0.6079645769
 H         8.4940329687        2.0811058166       -2.1624487710
 H         7.8615958518        6.9353983701        0.1315502691
 H         7.6882138842        7.6285744770       -1.4092548588
 H         6.6335110955        6.3148552684       -0.8935421850
 H         9.3480707542        3.9695129776       -4.3291083101
 H         9.8614032861        3.4928809006       -2.8038389223
 H        10.2169029601        5.0509867244       -3.4041039150
 H         8.0487643262        6.6302064738       -4.0014307392
 H         7.4170165082        5.1831274199       -4.7378911887
 H         6.5063748990        6.0752126652       -3.4738647544
 Na        1.0675033797       -0.7714523686        0.3537361591
