155

 C        -7.1468500779       -5.7625887160       -6.6629026801
 C        -6.6000838643       -6.1403881411       -5.2525921526
 C        -7.6818498903       -6.1561019611       -4.0211057171
 C        -8.0819564442       -4.7520909803       -3.6899985334
 C        -7.1241413352       -4.0521683960       -2.6884837284
 C        -8.9475543100       -6.8397129742       -4.6336515283
 C        -7.2211425345       -7.1091524258       -2.9727876427
 O        -5.4805416781       -6.5244104210       -5.0614778242
 O        -9.0709288309       -4.2412471323       -4.2361131251
 C        -7.3845258039       -2.5592632807       -2.5041914934
 C        -6.9980603929       -2.1464701670       -1.0854711755
 C        -7.5676713296       -0.7997385859       -0.4814343874
 C        -6.3587778988        0.0217168415       -0.0890671214
 C        -6.1811451000        0.4487361548        1.3922948503
 O        -6.4098763159       -2.8812195364       -0.3131542842
 O        -5.5885762419        0.3354855800       -0.9528798364
 C        -8.5000496387        0.1762231344       -1.3904209106
 C        -8.3054572882       -1.4205856872        0.6951746895
 C        -4.6824529053        0.4816922861        1.7554217672
 C        -4.2629067533       -0.5591508483        2.8283348840
 C        -2.6831681304       -1.0079344994        2.9227184919
 C        -2.3684877529       -1.3914882791        1.4874876794
 C        -3.2628400111       -2.5877368198        0.9297130785
 C        -1.7116107189        0.1472540977        3.3523858695
 C        -2.6451271138       -2.2606749738        3.9265954794
 O        -5.0478986942       -1.2566392873        3.4652976481
 O        -1.5516400375       -0.7413660403        0.8016314090
 C        -2.9690439848       -2.8799570764       -0.5437693135
 C        -1.5047287702       -2.5137960546       -0.8857456773
 C        -1.1347079325       -1.7932108970       -2.2666183429
 C        -0.0492148760       -0.8188382870       -1.8147208520
 C        -0.4752948365        0.6424867792       -1.7049458424
 O        -0.6188830222       -2.9986727018       -0.1878407516
 O         1.0379580180       -1.2482494684       -1.5546229684
 C        -0.5639282226       -2.9823370519       -3.0679392295
 C        -2.3519756283       -1.0453685853       -2.8806499597
 C         0.6073071364        1.7411831898       -1.3176599523
 C         0.7591066114        1.9668462262        0.2017408460
 C         0.2937916631        3.3505125221        0.7796743352
 C         0.3127689717        3.2391673372        2.2996179204
 C         1.5987647409        3.0086010572        3.0650564455
 C         1.2360145001        4.5011462148        0.4066971777
 C        -1.1448787085        3.4077663382        0.2238756562
 O         1.1788785034        1.0911931878        0.8994085519
 O        -0.7409842180        3.2933043592        2.9128814010
 C         1.5483377027        1.8314898937        4.1226538740
 C         2.9282782047        1.2857139699        4.5066727357
 C         3.0003909286       -0.2924085191        4.8110005569
 C         2.9332162159       -1.0914548242        3.5025961896
 C         4.1662567798       -1.3630294150        2.5615649513
 O         3.9454453198        1.9003324867        4.4469112273
 O         1.8128603624       -1.3324999230        3.0282242353
 C         4.3272893726       -0.5744325768        5.6190527476
 C         1.7024320234       -0.6798871591        5.6508673203
 C         4.3444044683       -0.0033621740        1.7523476673
 C         4.4625690173       -0.5549298755        0.2969529537
 C         5.9093310985       -0.4513630376       -0.4117509715
 C         6.5360971007        0.9754787972       -0.4348041733
 C         6.4543089289        1.7975399781       -1.7429296971
 C         6.9485236050       -1.3159928623        0.5286172534
 C         5.9100283793       -1.1644946416       -1.8188493599
 O         3.6220637191       -1.2104877347       -0.2129062673
 O         7.2085410875        1.4201110189        0.4795927388
 C         7.1198931162        3.1839856447       -1.4474065783
 C         6.7380237294        4.2795346921       -2.4958874427
 C         7.6113188529        5.5266068380       -2.6280117614
 C         7.7850401109        6.0971746558       -1.0814040853
 C         6.4504470280        6.6588540061       -0.4362114598
 O         5.7896994742        4.1032669201       -3.2314174635
 O         8.8480629309        5.9873011826       -0.5064180579
 C         9.0679605825        5.0945472626       -3.0604543140
 C         6.9173045266        6.6361971883       -3.5467629763
 H        -6.3409547599       -5.6476010750       -7.3681318009
 H        -7.8806633014       -6.4858468395       -7.1001161749
 H        -7.5701841186       -4.6900543533       -6.6495700723
 H        -7.3110939128       -4.5020419593       -1.6470430953
 H        -5.9958700723       -4.2098392617       -2.9373643266
 H        -9.5605870920       -6.9773527966       -3.7610074335
 H        -8.7615669639       -7.7509406721       -5.1302529938
 H        -9.4780165942       -6.1512354720       -5.3357108990
 H        -6.9511849691       -8.0667753900       -3.4599896347
 H        -6.2906570959       -6.6590893324       -2.5849066967
 H        -7.9576389826       -7.2230812029       -2.1548464746
 H        -6.8369382799       -1.9844888830       -3.2864540764
 H        -8.4371100945       -2.4182751054       -2.6493796475
 H        -6.5433033916        1.4800454948        1.3259614823
 H        -6.8544510080       -0.0821895355        2.1499279594
 H        -8.9623479861       -0.4324181156       -2.2160062976
 H        -7.8742191301        0.9649136834       -1.7473772019
 H        -9.3926184325        0.4547841712       -0.6985455271
 H        -7.6059141365       -1.9058036800        1.3542397407
 H        -8.9061230703       -0.6356469756        1.2426443929
 H        -9.1308948428       -2.0791264641        0.2842523661
 H        -4.3041167275        1.4207470156        2.0556571212
 H        -4.1009195650        0.3853598146        0.8055190091
 H        -2.9752428534       -3.3786460623        1.6048110045
 H        -4.3514227349       -2.2748610041        1.0664553275
 H        -0.6387969972       -0.0942917921        3.0662470482
 H        -1.8253729773        0.5005229814        4.4056181620
 H        -1.9710347777        0.9837175076        2.6499113995
 H        -1.6159170358       -2.6172025005        4.1166205586
 H        -3.0083732489       -1.9913660154        4.9025319961
 H        -3.3590145445       -3.0020152001        3.5047577963
 H        -3.1788661383       -3.8998214725       -0.7485126626
 H        -3.6407220489       -2.2815732583       -1.1175934610
 H        -0.8610547095        0.7434856441       -2.7317058629
 H        -1.3170144936        0.7709528366       -1.0426306919
 H         0.3164925664       -3.3412051078       -2.4964038038
 H        -0.2276689071       -2.6693414492       -4.0594539372
 H        -1.3148517002       -3.7697826357       -3.1113950104
 H        -2.0543487139       -0.2595347134       -3.6272923832
 H        -3.0304428386       -1.7146265715       -3.4222706764
 H        -2.9417603323       -0.4619609827       -2.1677455559
 H         0.2239853047        2.6949269700       -1.7153855055
 H         1.5859414846        1.6009400943       -1.7563358449
 H         2.4209028153        2.7767499333        2.4094539878
 H         1.7515360807        3.9336717753        3.5631949867
 H         2.2734828226        4.5194385419        0.8201986678
 H         0.8022413573        5.4528875268        0.7160058999
 H         1.2660462119        4.5560060113       -0.6375475528
 H        -1.2697739048        3.3974578371       -0.8160450428
 H        -1.6072854376        2.6656550686        0.7623203068
 H        -1.4597221694        4.4390275081        0.4912026121
 H         1.0564115865        2.2979724402        4.9675250500
 H         0.8616525019        1.0976427436        3.8439915965
 H         5.1756586461       -1.5687861752        2.9056732528
 H         3.8639989385       -2.1642869822        1.8565779218
 H         4.7931207841        0.3232890461        5.8641815180
 H         5.1281253199       -0.9789257633        4.9903873087
 H         4.1517766839       -1.3460991993        6.3843027721
 H         2.1257578283       -1.6102175419        6.0868184602
 H         1.6018757239        0.1809255018        6.3720606643
 H         0.7424161843       -0.8112917948        5.1196332380
 H         5.1761041340        0.5517638855        2.0202426680
 H         3.4085769855        0.6369914661        1.7746936023
 H         7.0854750666        1.3085478505       -2.4813448515
 H         5.5193209356        2.0590316458       -2.1279807785
 H         6.5457838954       -1.6808799102        1.5059265702
 H         7.8276072411       -0.6756295307        0.6758995136
 H         7.1422446120       -2.2365249059       -0.0741139109
 H         6.3980634685       -0.4865953787       -2.5786609947
 H         6.2696058313       -2.1423169651       -1.6772182676
 H         4.9313411827       -1.2027374922       -2.1364211736
 H         6.6165255870        3.6340496490       -0.5589151892
 H         8.2121409778        3.1696198982       -1.2661177270
 H         6.6010932689        7.0798687595        0.6065717423
 H         5.9859434620        7.5406095024       -0.8676600561
 H         5.6272526797        5.9345523696       -0.5577396484
 H         8.9658806455        4.5016358854       -3.9210124809
 H         9.4277693770        4.5398203243       -2.1599245809
 H         9.7543350224        5.9276233992       -3.2686535185
 H         7.5830188305        7.5218379460       -3.5212653398
 H         6.9580769398        6.2919830598       -4.5224373069
 H         5.9202608245        6.7433648492       -3.1771663880
 Na        1.1579155362       -1.4234362175        0.7819562463
