155

 C        -7.6960270528       -4.4676440137       -7.5342647773
 C        -6.5841181050       -5.2498685031       -6.7803613619
 C        -6.9902110527       -5.9678850081       -5.4608572960
 C        -7.4313335248       -4.8519882265       -4.4236878241
 C        -6.3844001223       -3.9694764084       -3.6325757923
 C        -8.1617779357       -6.9249040024       -5.6456141664
 C        -5.7008879597       -6.7260947044       -5.0336994050
 O        -5.4661793405       -5.2663546315       -7.1635576612
 O        -8.6193401161       -4.7931647817       -4.1517567492
 C        -7.1589929714       -2.9351574766       -2.8621072972
 C        -6.3463278720       -2.4415751479       -1.6588175421
 C        -6.9498687449       -1.3172997441       -0.7496406772
 C        -6.1095045489       -1.1600044373        0.6119765009
 C        -6.6034669358       -0.0744180865        1.5011706343
 O        -5.2069820130       -2.8831973653       -1.5169907203
 O        -5.3016752738       -1.9649204230        0.9913865195
 C        -6.8917724863        0.0674789458       -1.5067583629
 C        -8.4418590452       -1.5214656449       -0.4187323957
 C        -5.4895485422        0.2224289670        2.4935349848
 C        -4.9931230272       -1.0772468072        3.1813519700
 C        -3.4574810550       -1.1694239539        3.4759442839
 C        -2.7282690686       -1.2680636379        2.1467668860
 C        -2.4213202844       -2.6972179255        1.5746365820
 C        -3.0221892348        0.2499146890        4.0314000793
 C        -3.3359310577       -2.3308570590        4.4807335493
 O        -5.7460415176       -1.9326624719        3.5250722994
 O        -2.5798678730       -0.2640207580        1.4842078412
 C        -2.2878784951       -2.7256188995        0.0822986253
 C        -0.9834653643       -2.0701435217       -0.4058895671
 C        -0.6653019648       -1.8814841647       -1.9039894463
 C         0.1735696233       -0.4735363078       -1.8832328675
 C        -0.4803664198        0.9120055476       -2.0847629142
 O        -0.1222775695       -1.8513903830        0.4515109184
 O         1.4151555488       -0.4951999332       -1.6693808208
 C         0.1519627174       -3.0432530786       -2.4543240224
 C        -2.0110172402       -1.5546912009       -2.6827992868
 C         0.2909546584        1.9720592287       -1.2029717812
 C         0.1166155876        1.8489954750        0.3541625013
 C        -0.6040575218        2.9704380441        1.1233517691
 C        -0.3184337594        2.7941830635        2.6801462645
 C         1.1642332778        2.8791351168        3.2553301469
 C        -0.0583331976        4.3071715093        0.7285701439
 C        -2.0558294139        2.8516752655        0.7313301812
 O         0.7397005901        0.9466539523        0.8888555896
 O        -1.1408331706        2.4956619141        3.5200295269
 C         1.4566306694        1.7876154296        4.3480912138
 C         2.9134608934        1.1982407137        4.2690792322
 C         3.2642260964       -0.3097750117        4.6693168420
 C         3.1162990835       -1.1036399565        3.3443083397
 C         4.4156117818       -1.7857462872        2.6851644645
 O         3.8839276359        1.8515475353        3.9060154115
 O         2.0280056678       -1.1583353425        2.8386963876
 C         4.6277437719       -0.3523856452        5.4415182990
 C         2.1443779795       -0.9419523285        5.5826695932
 C         5.2268428101       -0.6622879341        1.9795995448
 C         5.1585310410       -0.7320491235        0.4534481064
 C         6.4543642220       -0.4260220864       -0.3546994834
 C         6.5728276016        1.1393498996       -0.2723777185
 C         6.9158664675        1.8450566947       -1.5706212252
 C         7.7156980209       -1.1805452640        0.2530611068
 C         6.2820667387       -1.0289778767       -1.7653759138
 O         4.1096964309       -0.8984273057       -0.1094034929
 O         6.5785664959        1.7330332986        0.7964938365
 C         7.3941147263        3.3026465812       -1.5004876542
 C         6.3101636694        4.2709864365       -2.1818398448
 C         6.7103445874        5.8112728285       -2.3340866345
 C         6.6825192493        6.4529509835       -0.8478546023
 C         5.9426751505        7.7957133786       -0.6062159748
 O         5.1702466954        3.9498185618       -2.3232563893
 O         7.1412506859        5.7997049663        0.0431356742
 C         8.1885029705        6.0025871354       -2.7375608136
 C         5.7403550158        6.4054041653       -3.3391920680
 H        -7.4823221699       -3.4593529319       -7.5172804913
 H        -7.5138368309       -4.6459589650       -8.5626537476
 H        -8.7053832718       -4.7113968420       -7.2058233877
 H        -5.8890907161       -4.6896278416       -2.9374174346
 H        -5.5991177187       -3.4509555174       -4.3073312527
 H        -8.4749073516       -7.2350118030       -4.6364357974
 H        -7.8098628465       -7.7156541476       -6.2332041953
 H        -9.0247261364       -6.4722831607       -6.1963464625
 H        -5.3787921595       -7.2563304342       -5.9558729332
 H        -4.9181930055       -6.0776900801       -4.6355273529
 H        -5.9149520642       -7.4923263715       -4.2991890692
 H        -7.3453816014       -2.1247641849       -3.5385542087
 H        -8.2020569203       -3.2358473616       -2.6855919514
 H        -6.9734089111        0.8428459217        1.0620645078
 H        -7.5267699366       -0.5660732866        1.9474832626
 H        -6.5180059689        0.8362080337       -0.8389107465
 H        -7.8086576903        0.4772184930       -1.8746234982
 H        -6.1487974191        0.0145888662       -2.2864795359
 H        -8.7058217311       -2.4247161296        0.1721728984
 H        -8.8388483976       -0.7130993461        0.2193392408
 H        -9.0275752610       -1.5171011427       -1.3860322025
 H        -5.8446047165        0.9086346402        3.3029221919
 H        -4.6872489388        0.6336011896        1.9361835603
 H        -1.5221835168       -3.0555016294        2.0221350227
 H        -3.2474240274       -3.2772808438        2.0358084809
 H        -1.9863223889        0.0822891698        4.2875260794
 H        -3.6415576388        0.5661296094        4.8610607083
 H        -3.0953034592        0.9274835872        3.1748054387
 H        -2.4731282418       -2.2352560867        5.1300416100
 H        -4.1000593031       -2.1745647262        5.1712341623
 H        -3.3563788206       -3.3853915269        4.1854603135
 H        -2.3983186236       -3.7280371120       -0.2939938106
 H        -3.1295769847       -2.2045414756       -0.3564758215
 H        -0.4281140041        1.1937708974       -3.1796009488
 H        -1.5527228763        0.9300913246       -1.8253045058
 H         1.0952740501       -3.1558259943       -1.9519652675
 H         0.4153926103       -2.7816174844       -3.4729199524
 H        -0.4017922831       -3.9709750952       -2.4165239582
 H        -1.8161001146       -1.1800340986       -3.7014298429
 H        -2.5482257380       -2.4692751173       -2.7838719162
 H        -2.6449849921       -0.8572350401       -2.2001846977
 H        -0.1279586834        2.9284219205       -1.5595771947
 H         1.2972622989        1.9528206284       -1.5305764114
 H         1.9026077884        2.8577852535        2.5077067110
 H         1.1922238287        3.9076982312        3.6833275115
 H         1.0839574473        4.2022952462        0.7742469391
 H        -0.3425098378        5.1438211577        1.4139884356
 H        -0.2883649840        4.5378548347       -0.3068067891
 H        -2.2082124225        2.9936523655       -0.3679937155
 H        -2.2396865448        1.8077753779        0.9708306975
 H        -2.5568629778        3.6450553007        1.3101324987
 H         1.4195750394        2.2626686448        5.3366195991
 H         0.6491976875        1.1492941237        4.2628960954
 H         4.9146533592       -2.4260623648        3.3562987983
 H         4.1798557520       -2.5011428264        1.9233977553
 H         5.2599628652        0.1333178518        4.6897713895
 H         4.9945264881       -1.4075931002        5.6231902897
 H         4.5987269404        0.2413525175        6.4324518286
 H         2.6925389612       -1.7362832662        6.0717850367
 H         1.6957982042       -0.1816519161        6.2372320248
 H         1.3223397416       -1.3025984629        4.9911466647
 H         6.2143099971       -0.6629002341        2.3836890413
 H         4.8207722192        0.4223705261        2.1049722659
 H         7.5518257433        1.1792730048       -2.1200507748
 H         6.0448190039        1.7376227343       -2.2091551788
 H         7.9605018282       -0.8431487216        1.2651525014
 H         8.5425668570       -1.0233003129       -0.4090986250
 H         7.3847938121       -2.2045369911        0.2494028370
 H         6.2283873624       -2.1525528994       -1.7600700273
 H         5.4325010585       -0.6074561129       -2.2915517611
 H         7.2196179866       -1.0109672666       -2.3095147884
 H         7.4811929233        3.5047326995       -0.4035232355
 H         8.3949747459        3.5147517086       -1.9281921726
 H         5.8365337112        7.8737635942        0.4892766032
 H         6.2727344455        8.6360947398       -1.2307783925
 H         4.8674365548        7.6510367684       -0.7931501732
 H         8.8728909060        5.4025744179       -2.1735354531
 H         8.4850763853        7.0971356572       -2.7357874351
 H         8.4175509778        5.6180046354       -3.7441191528
 H         6.0376876390        7.4419218398       -3.7042784457
 H         5.7724199542        5.9920778787       -4.3311340761
 H         4.6865019302        6.4524667303       -2.9739922330
 Na        1.8669530992       -0.8509830522        0.3066664467
