155

 C        -7.7675857590       -4.5088619772       -7.8362564407
 C        -6.6416213818       -5.0630933275       -7.0024659519
 C        -6.8892484895       -5.9022049303       -5.6762439413
 C        -7.4605081447       -5.0190030673       -4.5510283805
 C        -6.4121382446       -4.0321479736       -3.8625518944
 C        -8.0261919986       -6.9653324678       -6.1732191591
 C        -5.7066308633       -6.7340084076       -5.1688363512
 O        -5.5116318026       -4.8814980190       -7.4298063047
 O        -8.6237648487       -5.0715706111       -4.2076344171
 C        -7.0887179955       -3.1425873487       -2.7891457725
 C        -6.2131991048       -2.4572181415       -1.7984814375
 C        -6.9193782749       -1.3828927288       -0.9114084938
 C        -6.2348025803       -1.3280817618        0.5283394958
 C        -6.7300562221       -0.3733668377        1.6268334244
 O        -5.0218908426       -2.5667800664       -1.7369636199
 O        -5.3862945964       -2.1285662898        0.8443561399
 C        -6.5190862423       -0.0376707022       -1.5191540046
 C        -8.5014138683       -1.6762097644       -0.7643227653
 C        -5.6096720384        0.2513480180        2.4546731464
 C        -5.0379307031       -0.9300962119        3.3692893412
 C        -3.4756333831       -1.0673958492        3.7176725695
 C        -2.7872123909       -1.2842970647        2.2895857135
 C        -2.4066112613       -2.7174823970        1.8210103296
 C        -3.0428768887        0.1561211264        4.5280464346
 C        -3.2169521114       -2.2317673379        4.6394264212
 O        -5.6939082818       -1.9207854605        3.6116420934
 O        -2.4678598064       -0.2996367676        1.6047771588
 C        -2.2656981066       -2.7098816916        0.3170634181
 C        -1.0227746302       -2.0630145043       -0.1473279500
 C        -0.7324607966       -1.7786621585       -1.7343834843
 C         0.1919574597       -0.4238708685       -1.8033726637
 C        -0.5978377173        0.8764079748       -1.8422631670
 O        -0.0666700629       -1.8528539635        0.5647672121
 O         1.3613475569       -0.4386733555       -1.8185190814
 C         0.2898058485       -2.9109872300       -2.0634580070
 C        -1.8766856977       -1.8081292216       -2.7627735395
 C         0.1438733085        2.0789772106       -1.1670226343
 C         0.2424239421        1.9829000057        0.3253591259
 C        -0.6043527610        3.0381010139        1.2477430406
 C        -0.3685815736        2.7684511591        2.6948515187
 C         1.0259078974        2.7708834257        3.2420649367
 C        -0.1014433816        4.4972522157        0.8463495322
 C        -2.1206647722        2.9307383858        0.9548713309
 O         1.0116561200        1.2906266075        0.9448692680
 O        -1.3309218147        2.4815831194        3.3904071211
 C         1.3559410741        1.6438269823        4.3230795646
 C         2.8120252908        1.1741475428        4.1583899828
 C         3.1889615508       -0.3353364875        4.5723538465
 C         3.1217722127       -1.0693315852        3.2321496526
 C         4.4932605407       -1.6717287419        2.6598466852
 O         3.7276358594        1.7773488467        3.7389580336
 O         2.0637111717       -1.2183032403        2.6161115826
 C         4.4870354232       -0.4394327589        5.2935063059
 C         2.1085504224       -0.9828161833        5.5460228146
 C         5.4510627774       -0.6146982061        2.0137760749
 C         5.3246536518       -0.6444894529        0.5187343177
 C         6.6105246348       -0.4602176334       -0.4044839654
 C         6.7700115385        1.1416626693       -0.2322809881
 C         6.9554012123        1.9437397622       -1.5005748809
 C         7.9187446875       -1.1665578875        0.0739943018
 C         6.2586030994       -0.8813404852       -1.8718449065
 O         4.2084635357       -0.7633717427       -0.0116581760
 O         6.6320406268        1.6318056356        0.8497127712
 C         7.4095644403        3.3842980916       -1.3579897023
 C         6.2763161651        4.2454106384       -2.1641276730
 C         6.5321879585        5.8135801023       -2.2476179517
 C         6.5412819105        6.4503267672       -0.7434028553
 C         5.8822746354        7.8715668444       -0.6373331427
 O         5.2026147026        3.7641462620       -2.5331849468
 O         6.9834036509        5.8440659706        0.2015731347
 C         7.9537468886        5.9811300006       -2.8066045918
 C         5.4730763949        6.4435443767       -3.2357273264
 H        -7.5020456638       -3.5443355499       -8.4058504279
 H        -8.0527654105       -5.1692092476       -8.6962132278
 H        -8.5635064573       -4.2611199012       -7.0895359308
 H        -5.5928941365       -4.5687832149       -3.3534093341
 H        -6.0482871242       -3.4818232213       -4.6903535199
 H        -8.2577155058       -7.6622019245       -5.3943575327
 H        -7.7218730593       -7.3597716811       -7.1598032529
 H        -8.9534220684       -6.4935875609       -6.3542226253
 H        -5.3155712908       -7.4427630172       -5.8584614066
 H        -4.9174485624       -5.9910648074       -4.9070221799
 H        -6.0371543293       -7.2062308722       -4.1897537994
 H        -7.8132906975       -2.3937421602       -3.2228953410
 H        -7.8687807619       -3.7142955049       -2.2834833682
 H        -7.4124767596        0.4609330622        1.2630040479
 H        -7.4090668479       -0.9932583364        2.2452379908
 H        -7.0872378769        0.9017184552       -1.2455628066
 H        -6.7320480245       -0.0437056010       -2.6169794447
 H        -5.4014036035        0.1147837491       -1.2895011214
 H        -8.6959458664       -2.6893199769       -0.4029012303
 H        -9.0445087596       -1.0818529584        0.0210425340
 H        -8.9957064854       -1.5510464467       -1.7396279464
 H        -5.9742777892        1.0122965562        3.1029408596
 H        -4.8139231896        0.6622730336        1.7756088442
 H        -1.5327368169       -3.0713047303        2.4292194129
 H        -3.1756484465       -3.3304121506        2.1968040519
 H        -2.0569110778       -0.0367979989        5.0180854693
 H        -3.9025389393        0.1798111236        5.2297064526
 H        -2.9713295510        1.0503869539        3.8718785866
 H        -2.2611644471       -2.1554506052        5.1584616298
 H        -3.9354450307       -2.4780003032        5.4617303087
 H        -3.1063736486       -3.1611170602        4.0865437497
 H        -2.1730238903       -3.7611801487       -0.0388709844
 H        -3.1813881573       -2.3755457589       -0.1787079450
 H        -0.8862161356        1.1619777143       -2.8256113075
 H        -1.5296185891        0.7489676675       -1.2839305503
 H         1.1597207023       -2.8510626143       -1.4209034381
 H         0.6483743857       -2.8183079135       -3.0831352036
 H        -0.1675982968       -3.8869418363       -1.9025808416
 H        -1.6894663660       -1.0522441641       -3.5066481817
 H        -1.8891908472       -2.8042562257       -3.2611553788
 H        -2.8775560955       -1.5543250419       -2.3250885771
 H        -0.2418340828        3.0339522649       -1.5770938746
 H         1.2203499410        2.0021823990       -1.5698727458
 H         1.7669026285        2.6350875247        2.3955961085
 H         1.1623411513        3.7440815815        3.6949732567
 H         0.9365772401        4.6801468061        0.8366404028
 H        -0.5417967071        5.1041268789        1.6250944439
 H        -0.6658318198        4.8532826544       -0.0625205112
 H        -2.2645059216        3.2881004302       -0.0226749771
 H        -2.3621773530        1.9199372096        1.1326116948
 H        -2.6661268109        3.6858452751        1.5592088579
 H         1.2534859768        2.0627080819        5.3127223006
 H         0.5271675686        0.8572666109        4.2540697994
 H         4.8687083715       -2.3212545516        3.4939339250
 H         4.3263944054       -2.4591103199        1.9027456195
 H         5.2039506585        0.2262084451        4.7839514940
 H         4.8703454800       -1.4316620280        5.2069195707
 H         4.2976699677       -0.3919094296        6.3276798989
 H         2.5186912006       -1.9800661393        5.7647172571
 H         1.9319988391       -0.3374591712        6.4120331638
 H         1.1129559592       -0.9188019534        5.0518796991
 H         6.5571466744       -0.6922653089        2.3505099990
 H         5.0749786030        0.3041090748        2.3514611841
 H         7.4913891591        1.4587945016       -2.3255346881
 H         5.9662134672        1.9229510203       -1.9588126537
 H         7.9415654347       -1.2941611713        1.1702545117
 H         8.7339185837       -0.5004694686       -0.2770232884
 H         7.9040304851       -2.2016662515       -0.3172144913
 H         5.2396220640       -1.2211006136       -1.9206430439
 H         6.1960510198       -0.1099142661       -2.5964702849
 H         6.7361842331       -1.7480151957       -2.1631859455
 H         7.3465334814        3.8299275214       -0.3527629278
 H         8.4298792330        3.4718236669       -1.7197560398
 H         5.5088266311        7.9926368980        0.3583837158
 H         6.5758276291        8.5302326627       -1.1707621322
 H         4.9490192090        7.9291955447       -1.2282932343
 H         8.7098715061        6.2249340222       -2.0001930895
 H         7.9900280077        6.7736561141       -3.5369202760
 H         8.4647714404        5.1027251597       -3.2355164244
 H         5.2943359493        7.4551876919       -3.2377273571
 H         5.7359596043        6.3435978719       -4.2791549163
 H         4.5268458529        6.0053687661       -3.1086881079
 Na        1.9786038968       -0.9986551406        0.5744806047
