155

 C        -7.9252395901       -4.1854732588       -8.3296471567
 C        -6.8109463641       -4.3437763380       -7.2799158729
 C        -6.6071430121       -5.6741800619       -6.4804624314
 C        -7.0642142164       -5.2287129940       -4.9480338509
 C        -6.0036683276       -4.6595355522       -3.9969064347
 C        -7.5172303370       -6.8651187130       -7.0303109460
 C        -5.1307563539       -6.0446464767       -6.5807438077
 O        -6.0844563487       -3.4490235856       -6.9524225085
 O        -8.2064961114       -5.4061100210       -4.5659207790
 C        -6.6704261833       -3.7792519333       -2.8816673094
 C        -6.0612811584       -2.3828774339       -2.6658359400
 C        -6.7113067763       -1.6391818970       -1.4045196593
 C        -6.2515891870       -2.3067346970       -0.0849284601
 C        -6.8143955673       -1.7603504769        1.2185854784
 O        -5.0278141434       -1.9411941209       -3.1515733728
 O        -5.2170196636       -2.9858721114       -0.0353202258
 C        -6.2811751295       -0.1746295145       -1.2508005448
 C        -8.2433311601       -1.6185723118       -1.4973284652
 C        -5.7421794181       -0.9414563137        2.0110943573
 C        -5.3095922830       -1.5983939035        3.3497041327
 C        -3.8428083754       -1.1716122886        3.9329346730
 C        -2.8973791243       -1.2691263803        2.7191218928
 C        -2.4652616004       -2.7603158366        2.4003552589
 C        -3.7848709418        0.3623105397        4.3438552735
 C        -3.3894999139       -2.0812114728        5.0475794571
 O        -6.0551587137       -2.3037619865        3.9945993204
 O        -2.5638655749       -0.3402682261        2.0269697414
 C        -2.0611474202       -2.8881515517        0.8594393696
 C        -0.8329119983       -2.1114500693        0.3259414493
 C        -0.5675119950       -2.1247007254       -1.2480741829
 C        -0.0830314880       -0.5659833286       -1.3571844717
 C        -1.1412051271        0.4546030756       -1.2272719339
 O         0.0912531254       -1.6481366454        1.0278968016
 O         1.0902692946       -0.2880494494       -1.4680171558
 C         0.6986000819       -3.0388364720       -1.5111400442
 C        -1.7182346392       -2.2763098045       -2.2009943125
 C        -0.6391627880        1.9136941618       -0.8747830976
 C        -0.0202302329        2.1322831432        0.4853955824
 C        -0.5272098567        3.3124479871        1.4112921019
 C        -0.3959385854        2.9160602055        2.8936855749
 C         1.1090854260        2.6316670056        3.4151466327
 C         0.2837321669        4.6809856615        1.3212535899
 C        -2.0383091603        3.5085387100        1.1986510424
 O         0.8604399288        1.3939425738        0.8734510668
 O        -1.3265477009        2.9393051517        3.6512846988
 C         1.3985102435        1.2292285751        3.9647119810
 C         2.8645918431        1.0872612898        4.2367007746
 C         3.3852818117       -0.3441719998        4.5602961416
 C         3.6238374846       -1.2398936149        3.2501236823
 C         5.0201000299       -1.3603481401        2.6386113977
 O         3.8076427767        1.8348850209        3.9337115737
 O         2.6901630292       -1.8084384376        2.6354272737
 C         4.6503672580       -0.1194942480        5.3741075224
 C         2.4166579506       -1.3701752937        5.4257465968
 C         5.3422519696       -0.0717008276        1.8808084021
 C         5.2416554230       -0.3090212944        0.4009791859
 C         6.5871060206       -0.3802363636       -0.3780560004
 C         7.0893872698        1.1667154761       -0.1733456282
 C         6.6558621722        2.1456338541       -1.2125927496
 C         7.7261303989       -1.1738647939        0.2244615811
 C         6.4427695337       -0.8479915583       -1.8517613142
 O         4.2058404804       -0.5854767650       -0.1768111166
 O         7.6279499689        1.4925932765        0.8783874611
 C         6.8819578143        3.5756954486       -0.8901930251
 C         6.1600998576        4.3659946726       -2.0388926988
 C         6.0647644293        5.9184432909       -2.0687883756
 C         5.9285064492        6.6253642765       -0.6384799915
 C         5.6518418548        8.1731496768       -0.7043637766
 O         5.5174939304        3.7564898764       -2.8215110519
 O         6.0524903529        6.0697502512        0.4180854392
 C         7.3304113557        6.5466909385       -2.7638642547
 C         4.7601625221        6.2648605494       -2.8716244631
 H        -7.6597390126       -4.2539350584       -9.3271791543
 H        -8.7837188888       -4.7603729882       -8.1089067365
 H        -8.1515902840       -3.1435694553       -8.1987229928
 H        -5.3699828766       -5.5033605261       -3.5483598153
 H        -5.2016382363       -4.0463548465       -4.5464009234
 H        -7.0784590205       -7.8593937769       -6.8367519864
 H        -7.5650505601       -6.9520661351       -8.0687204552
 H        -8.5071570357       -6.7383212544       -6.5739913689
 H        -4.8727403675       -6.7103641420       -7.3597084061
 H        -4.4989519889       -5.1595906655       -6.5310187854
 H        -4.8612267969       -6.6084311330       -5.6285524978
 H        -7.7511261179       -3.7016625560       -3.1245941596
 H        -6.5524262435       -4.2796377870       -1.9545057470
 H        -7.6625996536       -1.0452267193        1.0439661458
 H        -7.2582229325       -2.6552198580        1.8193538169
 H        -6.2122070115        0.3111065385       -2.1851549276
 H        -5.3858552054       -0.1427007328       -0.7423768724
 H        -6.9161808036        0.4761177605       -0.7104614656
 H        -8.6893180552       -2.5935069152       -1.4332292105
 H        -8.7017603315       -1.0447245435       -0.7440001166
 H        -8.5104421336       -1.2267712444       -2.4665078710
 H        -6.0685571573        0.0483774079        2.1959597015
 H        -4.8986430031       -0.7255527190        1.3547998227
 H        -1.5968295475       -2.8894880678        3.0189938582
 H        -3.1405772776       -3.4115567172        2.8305551963
 H        -2.8916739451        0.4600412739        4.8876852862
 H        -4.5745736582        0.5685290122        5.0232056206
 H        -3.8060983299        0.9623389946        3.4460703093
 H        -3.9747099684       -2.9791861094        5.2567588803
 H        -2.4257131019       -2.4746916282        4.9215226269
 H        -3.2929040633       -1.5518617243        6.0051322432
 H        -1.9431583486       -3.9273433850        0.5130476087
 H        -2.9119640538       -2.4660499032        0.3602180378
 H        -1.6702087707        0.5983829133       -2.1554226152
 H        -1.9687674535        0.1828512093       -0.5255777202
 H         1.5639756698       -2.6870781279       -0.9766271594
 H         0.8955021729       -2.8503571569       -2.5950506145
 H         0.5866662139       -4.1443780255       -1.4409748490
 H        -1.4183840804       -1.7702660690       -3.0966883201
 H        -2.0506992739       -3.2916794674       -2.3684128646
 H        -2.5360115517       -1.7422028074       -1.7265362922
 H        -1.4313810747        2.6367580306       -0.9866008746
 H         0.1078584427        2.2030438427       -1.6259679014
 H         1.8418638092        2.7764773472        2.5904076337
 H         1.2944805936        3.3689071420        4.1942423902
 H         1.3462612962        4.6709804416        1.4853506020
 H        -0.1772237153        5.1623746782        2.1496886221
 H         0.1191852587        5.2815252511        0.3733689875
 H        -2.2410698418        3.6074920595        0.1170078805
 H        -2.5801565368        2.7027892617        1.6361509234
 H        -2.3713578691        4.3347752038        1.9051069847
 H         0.8206400057        1.0413047865        4.8361024311
 H         1.1229387652        0.4850753133        3.2862893715
 H         5.6739331416       -1.6082219465        3.4357595940
 H         4.9809248640       -2.0934768973        1.8850160724
 H         5.3044828509        0.6146000725        4.8493860240
 H         5.2276060209       -1.0653834865        5.4731057805
 H         4.4044855233        0.4149737464        6.3496232171
 H         2.8921853602       -2.2977672821        5.6193638864
 H         2.1727219744       -1.0027286351        6.4085373612
 H         1.5885192210       -1.7016155599        4.9058021110
 H         6.3535934342        0.4760577931        1.9150066345
 H         4.5732901928        0.6828523180        2.1290754809
 H         7.1289696942        1.9458052688       -2.2030038180
 H         5.5972947342        1.8648259496       -1.2961204021
 H         7.5400640690       -1.2912242250        1.2902203846
 H         8.6566496923       -0.5749651118        0.1837759274
 H         7.9951970053       -2.0909658951       -0.2270882658
 H         5.3133204967       -0.9740836732       -2.0699623988
 H         6.8586230585       -0.1634308178       -2.5834746892
 H         7.0276036357       -1.7092407762       -2.0836735309
 H         6.4399230329        3.8362093674        0.1023592398
 H         7.9856531830        3.6792850617       -0.9304373804
 H         5.8323979275        8.5864502886        0.3097841352
 H         6.4383629326        8.6565294991       -1.3443892829
 H         4.6966506429        8.3315736526       -1.1857390518
 H         8.1517494408        6.5329778209       -2.0851023639
 H         7.2189696940        7.6069436957       -2.9704572029
 H         7.6509731556        6.1292108278       -3.6928461120
 H         4.6084722136        7.4093200701       -2.9441999374
 H         4.6645033583        5.9032684344       -3.9141956299
 H         3.7600071606        5.9363886028       -2.4809998971
 Na        2.0105920690       -0.5131454423        0.6165812388
