155

 C         0.9123429647       -8.9204138609       -1.1529408366
 C         1.2678221161       -9.0083993124        0.2709626117
 C         2.6571736072       -8.4604683333        0.7104470088
 C         2.5550803485       -6.8644850938        1.2140845464
 C         1.8759661244       -6.5630898994        2.4970895208
 C         3.1346314735       -9.2919006361        1.9276522144
 C         3.6439249624       -8.4205594692       -0.4177332329
 O         0.5450666680       -9.6671611102        1.0140889965
 O         3.0872319834       -5.9946426487        0.5915476455
 C         0.6630320339       -5.5720978428        2.2602196056
 C         0.6992471933       -4.2435740603        3.1537294247
 C         0.0338454757       -2.8930253564        2.5952266070
 C         1.0667665182       -1.9302699873        1.9932448663
 C         1.9783124618       -2.3089491351        0.7836209149
 O         1.4977611635       -4.1744878085        4.0143404020
 O         0.9658601278       -0.7626737716        2.3771094530
 C        -1.0097600085       -3.2363948731        1.5039754471
 C        -0.6967162792       -2.2409548091        3.7589177432
 C         2.9621383915       -1.1848081733        0.5619275356
 C         2.2160538460        0.2361354658        0.2803118539
 C         2.6483064628        1.6065822033        1.0600402161
 C         3.4621413067        2.4350035651        0.0357390770
 C         4.9225916763        2.9575644379        0.2953125644
 C         1.4478028322        2.4318154240        1.2853705686
 C         3.4312928550        1.3267960824        2.3665368522
 O         1.3819482380        0.2413640726       -0.5978886201
 O         2.8572806638        2.9122296496       -0.8809090755
 C         5.4203772410        3.4928302305       -1.0425294285
 C         6.0332454856        2.2976087967       -1.8750065420
 C         6.6524632505        2.7649421110       -3.2878765993
 C         5.5586944677        2.3025140359       -4.2514094692
 C         5.3140049628        0.8073606037       -4.5506877722
 O         5.9252395043        1.1152571047       -1.6229086904
 O         4.9175911116        3.1560887432       -4.8979184356
 C         6.9449753874        4.2896990990       -3.3718455695
 C         7.9380016402        1.9243908290       -3.3670466381
 C         4.0851668476        0.6404296409       -5.5276402555
 C         2.7812975013        1.2336227906       -4.8922585767
 C         1.4563207918        1.4495889482       -5.8846389160
 C         0.2974023712        2.1762015460       -5.1596376473
 C         0.0646111365        3.7069182955       -5.6622246940
 C         1.9780404045        2.3455656996       -7.0492981201
 C         0.8991860103        0.1023825694       -6.2046428734
 O         2.7443243688        1.5197350595       -3.7205509621
 O        -0.3167025216        1.6810003953       -4.2327122811
 C        -1.2015387226        4.1978243834       -4.9207071401
 C        -0.9348663065        4.4182074198       -3.4338281711
 C        -2.2072564237        4.4237601452       -2.4732164925
 C        -2.1667043592        3.0126523931       -1.8050467498
 C        -3.3481346980        2.0783495291       -1.9878308084
 O         0.1813603309        4.3684514151       -2.9877170855
 O        -1.1421671436        2.6015927056       -1.2264701654
 C        -1.9487056136        5.5381401995       -1.3754485016
 C        -3.4993056443        4.9106070562       -3.1544972573
 C        -4.4457440875        2.3409519335       -0.8833151817
 C        -4.2547665382        1.3981264302        0.3594579871
 C        -4.1335411977        1.8274954359        1.8828477856
 C        -5.7052704441        1.6936542149        2.3487055953
 C        -5.9776453081        0.6339661676        3.4370823219
 C        -3.1955193099        0.8192919884        2.5533690047
 C        -3.8777908892        3.3060818934        2.1771591613
 O        -4.1583032696        0.1874063482        0.1195708341
 O        -6.5798423094        2.3211379992        1.7737558842
 C        -7.4107272358        0.7656123156        3.9143119627
 C        -7.8745144350       -0.4591574745        4.7422524820
 C        -9.4131389475       -0.6585876673        5.0488165278
 C        -9.7057388255        0.2923181024        6.2427876289
 C       -10.0032142423       -0.2014584926        7.6580399990
 O        -7.0841249748       -1.3179156999        5.0724425496
 O        -9.6066802177        1.4797117839        6.0518379034
 C       -10.1651732858       -0.3106595742        3.7871069027
 C        -9.6327047191       -2.0506631591        5.4811364478
 H        -0.1181874180       -8.5410168493       -1.3621280429
 H         1.4750616932       -8.2573869322       -1.6368715479
 H         1.0386198212       -9.8624322759       -1.6764989337
 H         1.5606611078       -7.4103154109        3.0552849993
 H         2.6868337152       -6.3558633016        3.2329497067
 H         2.3270581409       -9.6674176869        2.5198449029
 H         3.8281380248       -8.7947319849        2.5654651555
 H         3.6925543450      -10.1441333632        1.7176687509
 H         3.5926042877       -7.5489192080       -1.0312870594
 H         4.6764898158       -8.2957231941       -0.0120934910
 H         3.5914985765       -9.2849342101       -1.0871623128
 H         0.8670744647       -5.1039394681        1.3681219053
 H        -0.3274595993       -6.0273011662        2.2772295426
 H         2.5273609350       -3.2336654119        1.0428359919
 H         1.4247347901       -2.4678869052       -0.1788406217
 H        -1.5928122365       -2.3997338122        1.1459207023
 H        -1.6433284788       -4.0233641447        1.8036579365
 H        -0.3551954591       -3.6932448491        0.6847200359
 H        -1.6852749323       -2.7502554068        3.9896262846
 H        -0.1003810987       -2.3124532985        4.6518246483
 H        -0.8966204533       -1.2233659234        3.5065392570
 H         3.5037399567       -1.2915776460       -0.4250147512
 H         3.6480426937       -0.9273480549        1.3111085512
 H         4.8549302508        3.6895733611        1.1170809403
 H         5.5238825458        2.1044544906        0.6410981836
 H         1.7458465449        3.4972458632        1.3680346525
 H         0.9579423172        2.1244467109        2.1879917407
 H         0.7842491894        2.3057678495        0.4942764158
 H         2.7628701018        0.5882779672        2.9097458847
 H         4.4729332646        1.0845036897        2.2171410683
 H         3.4723894366        2.3057840471        2.8337114931
 H         4.7061764507        4.1507831396       -1.5790763099
 H         6.2359729002        4.1631229671       -0.9551788354
 H         6.2056859102        0.3503602929       -5.0899611781
 H         5.2087496502        0.2268431286       -3.5715984314
 H         7.2976436796        4.6935656629       -2.4258801830
 H         6.0618995878        4.8560812742       -3.6252633009
 H         7.6191477624        4.5813389417       -4.2490594967
 H         8.5738639394        2.1433161554       -4.2132169670
 H         8.4259520064        1.8585364300       -2.4091720052
 H         7.6341700167        0.9442411136       -3.6269253065
 H         3.9329447680       -0.3894490447       -5.6900158965
 H         4.3132366889        1.2452919038       -6.3687501274
 H         1.0078248214        4.1935225675       -5.3585710539
 H         0.0230121364        3.7020957722       -6.7378789894
 H         2.6730262907        1.7757271918       -7.6435539947
 H         2.5735862945        3.0386632253       -6.6269330787
 H         1.1500267229        2.6280125384       -7.6908467867
 H         1.1826571172       -0.5326383988       -5.4236220739
 H        -0.1794286566        0.1249818777       -6.0717382554
 H         1.1938274681       -0.3246528866       -7.1988884564
 H        -1.5925077701        5.1112866653       -5.4326707824
 H        -1.9960090666        3.3845084456       -4.9901209468
 H        -3.8060002562        2.2876507031       -2.9146710310
 H        -2.9283239608        1.1130506435       -1.7633078328
 H        -0.8880893820        5.5586870624       -1.1638461507
 H        -2.6045069068        5.4277052784       -0.5503988468
 H        -2.3756419160        6.4482451148       -1.8100810209
 H        -4.2718032449        5.3528227692       -2.4813896594
 H        -3.0977478082        5.6562303890       -3.8228421510
 H        -4.0800021090        4.1944270699       -3.7612461416
 H        -5.4551630129        2.1072087806       -1.2423452861
 H        -4.4824402320        3.3670653934       -0.5913735389
 H        -5.8319432486       -0.3314626536        2.9243445977
 H        -5.2951249044        0.6209116195        4.2690285471
 H        -2.2445530349        0.7799977124        2.0175475839
 H        -3.6806506808       -0.2023483891        2.5329504979
 H        -3.0914885909        1.2053961780        3.6008987562
 H        -3.9267608791        3.4619455523        3.2656482216
 H        -2.9163481296        3.5689250185        1.8780757832
 H        -4.6481178320        3.9420688439        1.7732548506
 H        -7.5446440707        1.6901615657        4.4002287763
 H        -7.9981535617        0.7033144840        2.9781802731
 H        -9.1607462226       -0.7672992505        8.0020418011
 H       -10.1980632998        0.6594086660        8.2924027986
 H       -10.8865577679       -0.7546185246        7.6716026585
 H       -10.0838798068        0.7226353117        3.5218440959
 H       -11.2023933798       -0.4925445846        3.8707618055
 H        -9.8390507578       -0.7986011664        2.9269858796
 H       -10.6398480911       -2.2067774294        5.7583196485
 H        -9.4556967303       -2.7444515935        4.6193441783
 H        -8.9214608544       -2.3631212436        6.2626496787
 Na        0.8887291323        2.1214730659       -2.3524402873
