155

 C         1.1329804693        6.7610409365        2.4097269773
 C         1.0801337023        5.1826322131        2.6374766568
 C         1.4791197545        4.6819486724        4.0665382218
 C         0.2036648072        3.9343993856        4.7191331373
 C        -0.2912020593        4.4397683559        6.0547851048
 C         2.6123779540        3.6404329363        3.9008074456
 C         2.0261724641        5.7378222141        4.9657504224
 O         0.8202431125        4.4526370139        1.7478308053
 O        -0.4368131769        3.1118971447        4.1108855072
 C        -1.7283926313        4.8762836920        6.2214171747
 C        -1.8630741692        6.3427065563        5.9101515381
 C        -3.3502803815        6.9613384758        5.8451139636
 C        -3.9525935561        6.1001087242        4.6062690551
 C        -3.5325035729        6.5491805311        3.2150922201
 O        -0.9484660351        7.1209653312        5.6841872440
 O        -4.6265363600        5.0720873641        4.8114469728
 C        -4.0841252021        6.5450997355        7.1270865411
 C        -3.3733530751        8.4375592739        5.4864354951
 C        -4.3458439770        5.8616788131        1.9510651460
 C        -3.6984004052        4.4663783160        1.7162639082
 C        -4.5866432281        3.3301539777        1.0855411002
 C        -3.5772118565        2.1315709159        0.5826984455
 C        -3.9461477146        0.6658598458        1.0219493385
 C        -5.4273313814        2.6731935954        2.2862661149
 C        -5.6100287968        3.8683484476        0.0172912950
 O        -2.5922778107        4.1491415992        2.1858409728
 O        -2.5026244630        2.4204259468        0.0985759752
 C        -2.7374577830       -0.2267551915        0.9032899761
 C        -1.7260850670       -0.1302856742        2.0615845454
 C        -0.4062061062       -0.9755316432        1.8182333085
 C         0.7181054062       -0.1833576688        0.9861156359
 C         1.7449492995       -0.9888400150        0.2218445680
 O        -1.9205695699        0.5825847993        3.0199818786
 O         0.8515696305        1.0702628979        1.0469937518
 C         0.2227787586       -1.3470181940        3.1467377783
 C        -0.7940811293       -2.2489687076        0.9846378060
 C         2.9559539098       -0.0969928057       -0.1728805085
 C         4.2792996774       -0.7900072022       -0.1570711224
 C         4.8806041713       -1.4109937283       -1.5114750509
 C         3.9996146765       -2.6329406113       -1.9386468046
 C         4.2842844244       -3.9576794376       -1.3308202507
 C         4.7461717205       -0.3677721514       -2.6621188020
 C         6.3676092920       -1.6649942405       -1.4135562415
 O         4.9117788947       -0.9216484777        0.8865543959
 O         3.1165294728       -2.4344887181       -2.7285639711
 C         3.1810787256       -4.9961059530       -1.4851876233
 C         2.0633941194       -5.0423285724       -0.3580723310
 C         0.9972527348       -6.1722594685       -0.4855020364
 C        -0.2981583737       -5.8472180802       -1.3743342611
 C        -1.7352563544       -6.1075362958       -0.9511327288
 O         1.8260819131       -4.0713656023        0.3280591710
 O        -0.0765136301       -5.4139307605       -2.4940432222
 C         1.6271419570       -7.2905914936       -1.3047908620
 C         0.4759976966       -6.6347312249        0.9249367152
 C        -2.8201786464       -5.6976861477       -1.9965061207
 C        -3.0237244729       -4.1230847368       -1.9434077019
 C        -3.7719601445       -3.4766671354       -3.0665544457
 C        -2.7550082455       -3.7824280736       -4.4223975761
 C        -1.8822739970       -2.5816860961       -5.0091812892
 C        -5.1731379051       -4.0205184944       -3.3979080725
 C        -4.0858150231       -1.8958934981       -2.8388173424
 O        -2.7791228074       -3.4973964638       -0.9291378445
 O        -2.8241927388       -4.8496799410       -4.9882074151
 C        -1.1579533932       -2.9970758990       -6.3935490764
 C        -0.1470539522       -1.9511566076       -6.8640989075
 C         0.4325854272       -2.0250799235       -8.3724446155
 C         0.8270940708       -3.5630711750       -8.7673950248
 C         2.2893435298       -3.9481347822       -8.6704150860
 O         0.1450289465       -0.9813035197       -6.2115747547
 O        -0.0590314571       -4.2607826329       -9.1331421149
 C        -0.7255256611       -1.5213094039       -9.3177700328
 C         1.6080865950       -1.0610791013       -8.6211291952
 H         2.1364844350        7.1065628127        2.1468671120
 H         0.4079410790        7.0970889839        1.5711342657
 H         0.7943034001        7.3781518461        3.2604568528
 H        -0.2149004492        3.6279613748        6.8044285432
 H         0.3491703635        5.1890793877        6.5005823256
 H         3.4614602750        4.0236395763        3.3690606101
 H         2.2667929339        2.8118169525        3.1880197981
 H         2.9189144862        3.2729062136        4.9060823090
 H         1.3243050671        6.5129556327        5.1608527810
 H         2.3386540571        5.3399662927        5.8933346157
 H         2.8423121394        6.1187789277        4.4521305357
 H        -2.3646872905        4.1631992400        5.5696409241
 H        -2.1019353434        4.6703705342        7.2029948923
 H        -3.7075155923        7.6051107939        3.1730934231
 H        -2.4505472719        6.3990387618        3.1414701909
 H        -4.0652535156        5.4555676749        7.3020697918
 H        -5.1483565588        6.7603637121        7.0583598414
 H        -3.5551879933        7.0447774411        7.9435409818
 H        -3.1068908102        8.9656916792        6.3592389300
 H        -2.6291138253        8.6281568835        4.6695342510
 H        -4.3493765832        8.7918972785        5.0695353266
 H        -4.3248165158        6.4023843053        1.0197458248
 H        -5.4359264991        5.7028729147        2.1208209363
 H        -4.2634814987        0.6359208325        2.0765844630
 H        -4.7607291655        0.2802050437        0.3838382078
 H        -5.9190186154        3.3819736028        2.9241630897
 H        -4.8739746606        1.9890257554        2.9661726617
 H        -6.2176804632        2.1098054711        1.8757327114
 H        -6.0580631388        4.6987283083        0.4849661495
 H        -5.2424231589        4.1433185301       -0.8973235183
 H        -6.4606633487        3.1015401756       -0.0606713826
 H        -3.2619491997       -1.2003222158        0.8957288485
 H        -2.2126222071       -0.0573780280       -0.0582072741
 H         1.9965404764       -1.9004006466        0.7634581318
 H         1.2431864076       -1.3096451117       -0.7273586275
 H         0.2528518039       -0.4280216565        3.7508281415
 H         1.2180086732       -1.7876804277        3.2434489544
 H        -0.4406785681       -2.0494116097        3.7568572144
 H         0.0135073299       -2.9221905429        1.2254951826
 H        -1.6871225632       -2.7275463801        1.3494896635
 H        -0.8985196246       -2.0168295683       -0.1159691881
 H         2.8854020432        0.8397500518        0.4205385197
 H         2.7167465235        0.2402602794       -1.1809504545
 H         5.0905994503       -4.4100151929       -1.9583402870
 H         4.6554814209       -3.8032578631       -0.3226292321
 H         5.4723265602       -0.5397515551       -3.4900288654
 H         5.0780046878        0.5778641814       -2.3343736550
 H         3.8070289371       -0.3330122505       -3.1765228181
 H         6.7628588624       -2.2335207776       -0.4728509059
 H         6.6734984850       -2.2043292739       -2.2736515286
 H         6.9588315298       -0.7506028282       -1.6055784060
 H         2.6576253439       -4.7910303791       -2.4147795556
 H         3.7003709529       -5.9153211384       -1.5997235133
 H        -1.7525332530       -7.2125773887       -0.6673286579
 H        -1.9064009534       -5.5345038912       -0.0558418919
 H         1.8242102174       -6.8764641239       -2.2657224701
 H         0.9001032201       -8.1448001617       -1.3347037656
 H         2.5785092848       -7.6623776194       -0.8678441254
 H         1.2746645824       -6.7115269705        1.6847639917
 H        -0.2014297369       -5.8078924969        1.2943101974
 H        -0.1620768908       -7.5399557900        0.9163396408
 H        -3.7736295401       -6.2226162146       -1.7474393549
 H        -2.5078810579       -6.0097925464       -3.0070948478
 H        -2.5385270794       -1.7311889608       -5.2557196501
 H        -1.1800961642       -2.2943879115       -4.2593640455
 H        -5.1837835009       -5.0677854299       -3.3062282790
 H        -5.3764181747       -3.7691635702       -4.3774111844
 H        -6.0156447309       -3.6299028176       -2.7941948256
 H        -4.8276021949       -1.8584089230       -2.0807719698
 H        -3.2409481085       -1.3248333582       -2.5202521966
 H        -4.3905870845       -1.3646596782       -3.7376332641
 H        -0.6313603055       -3.9834811368       -6.4610293502
 H        -1.9545469153       -3.0634735318       -7.1165660176
 H         3.0597367036       -3.1701002871       -8.7826882798
 H         2.5146826604       -4.3720860579       -7.6745658592
 H         2.5201296936       -4.6229333063       -9.5140186781
 H        -0.8520054018       -0.5278092449       -9.0904609189
 H        -1.6071662621       -2.1449453019       -9.0476289922
 H        -0.3532068953       -1.6477985946      -10.2840016615
 H         1.2315757980       -0.0242454830       -8.4153048323
 H         2.4706649205       -1.1888315199       -7.9504561852
 H         1.9732709115       -1.2085366374       -9.6210758138
 Na       -0.7200158878        2.8211123470        1.7937358366
