155

 C         2.7505457945        5.5734046946        2.6651967180
 C         1.7285370764        4.4666750861        2.9534915948
 C         1.5086151545        3.9394117705        4.4185381457
 C        -0.0490614331        4.0766096466        4.7333766557
 C        -0.4479570352        5.1553387163        5.7978474123
 C         1.9105411934        2.5137792015        4.4145560363
 C         2.3669418352        4.6448377831        5.4811155840
 O         1.1139816200        3.9112434062        2.0404622788
 O        -0.8703342865        3.4040343425        4.1287151222
 C        -2.0526111289        5.2533841787        5.9388628012
 C        -2.6719132057        6.1178595027        4.8012143006
 C        -4.2999465080        6.1223945856        4.7310167713
 C        -4.5889343576        5.3759752940        3.3281346844
 C        -4.5010595758        6.3102199677        2.1027463829
 O        -2.0606584616        6.7605663180        3.9562188541
 O        -4.8861195719        4.1846518945        3.2538256325
 C        -4.9303038405        5.3032936317        5.9523876435
 C        -4.6761991699        7.5665419660        4.7020751880
 C        -4.7300930244        5.4776366511        0.7874777069
 C        -4.0793912514        4.1226600130        1.0342331688
 C        -4.9225154244        2.8376901740        0.6001886340
 C        -3.9097997110        1.6859990346        1.0480532565
 C        -4.2213966162        0.6396405440        2.1209504185
 C        -6.3698188485        2.7591043798        1.1241346731
 C        -4.8504808419        2.9959640982       -0.8558941192
 O        -2.9295849946        4.1571743389        1.2898501335
 O        -2.7980278222        1.7916831020        0.5389513619
 C        -3.1333763967       -0.4932494853        2.1940123692
 C        -1.8289506286       -0.0451728743        2.7929517206
 C        -0.6217414113       -1.0154551462        2.7557103699
 C         0.6543174351       -0.3916563864        1.9505123053
 C         1.9186884883       -1.1540287165        1.8069356734
 O        -1.8078618616        0.9435944679        3.5311259449
 O         0.4248715444        0.6548373957        1.3750750404
 C        -0.2504234981       -1.2548836076        4.2692819388
 C        -0.9625442645       -2.3647095166        2.1295089096
 C         2.8258514079       -0.7112968657        0.6533089791
 C         4.4409412374       -0.9328785319        0.8329886994
 C         5.3548542110       -0.9861088709       -0.4951143438
 C         4.5622037464       -2.0872183085       -1.4538711266
 C         4.6934199197       -3.5519205038       -1.0566738810
 C         5.2849323939        0.3790861009       -1.1741843802
 C         6.7723086700       -1.5115612202       -0.2216669821
 O         4.8750229150       -0.9984427692        1.9694154902
 O         3.9912735264       -1.6414618694       -2.3946840290
 C         3.3686045678       -4.4398287437       -1.4528813884
 C         2.5663431985       -5.0625335286       -0.2835552879
 C         1.3527133844       -5.9455056615       -0.5459683850
 C         0.2964761257       -5.2004569077       -1.5459495305
 C        -1.2204932541       -5.3062274452       -1.2696499691
 O         2.9096621980       -4.7380943318        0.8558079418
 O         0.7891570862       -4.6512328764       -2.5016353664
 C         1.5279830429       -7.2766328250       -1.3103114600
 C         0.8704750705       -6.3877891086        0.8665152148
 C        -2.1493739595       -5.1736357526       -2.4446172414
 C        -2.8765389901       -3.8479859469       -2.4988259989
 C        -3.5423377852       -3.4805779424       -3.8084521225
 C        -2.5396053888       -3.5588781271       -5.0108022075
 C        -1.5689109937       -2.2739303458       -5.2049675108
 C        -4.7461697495       -4.4308921828       -4.0586840538
 C        -4.1911129432       -1.9739520243       -3.6731341344
 O        -3.0083742179       -3.1396769083       -1.4966586393
 O        -2.4154583640       -4.5604440126       -5.6691070779
 C        -1.1670176195       -2.3621529377       -6.6888909761
 C        -0.6680617433       -1.1560762323       -7.3805046831
 C         0.2296189101       -1.4762310468       -8.7077485078
 C         1.4611606788       -2.2698976582       -8.0631568217
 C         2.0281381619       -1.7173407334       -6.7564496205
 O        -0.7898848802        0.0260852804       -7.1397263445
 O         1.9096798412       -3.2860555048       -8.5484217978
 C        -0.4838594163       -2.3795733554       -9.6837966021
 C         0.7561930416       -0.1896609761       -9.4108038203
 H         3.7779861645        5.2030613864        3.0009146358
 H         2.7423752312        5.7436685175        1.6299869341
 H         2.5376921129        6.5665551776        3.1346782144
 H         0.1474935870        4.8648465033        6.7162594933
 H        -0.2137077269        6.1324604022        5.4835839064
 H         2.8714438772        2.2499136189        4.1004702691
 H         1.2740213780        2.1055577703        3.7203357061
 H         1.8458624939        2.0370737558        5.4033194948
 H         2.2865739949        5.7061534822        5.4171966755
 H         2.2738875341        4.3003252802        6.5216143126
 H         3.4277280905        4.2484420068        5.4113178119
 H        -2.5353061830        4.2699070433        5.8947603668
 H        -2.1950954152        5.7740662281        6.9001497814
 H        -5.2274515802        7.1570633978        2.1231943763
 H        -3.5192456975        6.7175222062        1.9905306887
 H        -4.7892043295        4.2503405859        6.0390223248
 H        -6.0077930522        5.3759611164        5.9179321693
 H        -4.7313970040        5.7696346576        6.8856480860
 H        -4.4515325593        7.9071362467        5.6352129846
 H        -4.1447393022        8.1373458050        3.9196447940
 H        -5.7655518558        7.6486581225        4.5126795056
 H        -4.1381842721        5.9708261372       -0.0171917409
 H        -5.7624737343        5.4643382261        0.3425953954
 H        -4.2160195964        1.0439168469        3.0955806496
 H        -5.2772674802        0.3388922429        2.0467919248
 H        -6.4566931679        2.6225598371        2.2263177274
 H        -6.9663759438        1.9562152381        0.5806208318
 H        -6.8943133735        3.6391617509        0.7080064647
 H        -5.2926968641        3.9360858769       -1.0563098797
 H        -3.7506380142        3.0160222859       -1.2260017321
 H        -5.4661929668        2.2671845607       -1.2611431566
 H        -3.5001780066       -1.3766897757        2.7135162359
 H        -2.9879419012       -0.8936114566        1.1839740787
 H         2.5247865840       -0.9925395861        2.7663525847
 H         1.8291758410       -2.2418961449        1.7362647951
 H         0.0720644922       -0.4126784240        4.7478072097
 H         0.5248927784       -1.9676132447        4.4248582771
 H        -1.1440571128       -1.5356024899        4.8454514472
 H        -0.0782867049       -2.9582889615        2.2217612142
 H        -1.6302070311       -2.7606468495        2.8660650196
 H        -1.3209689523       -2.1740655706        1.0885697492
 H         2.7536843817        0.4285339626        0.7049075464
 H         2.4013137788       -1.1483449294       -0.3009455564
 H         5.5418196572       -3.8595845332       -1.5978401067
 H         4.9686188887       -3.5711764574       -0.0228536242
 H         5.6895307807        0.4684891452       -2.2029819163
 H         5.9553874044        1.1497719664       -0.6033709367
 H         4.2567606403        0.5498798442       -1.2512918510
 H         6.7316527841       -2.2265346670        0.5195804335
 H         7.2151181953       -1.8623957494       -1.1655713563
 H         7.3225900887       -0.6847777155        0.0267203412
 H         2.8253350959       -3.7322493150       -2.1531686021
 H         3.7083423319       -5.2860515283       -2.1570796902
 H        -1.4308876000       -6.2565985872       -0.6586385684
 H        -1.4554471206       -4.4698619883       -0.5831273464
 H         1.7221065080       -7.1539239206       -2.3244278484
 H         0.5698128260       -7.8540595988       -1.3915039808
 H         2.2861862895       -7.9523600251       -0.9084712189
 H         1.5045935816       -7.2189043384        1.1861241505
 H         0.9209077910       -5.5448363752        1.5578633224
 H        -0.1308438498       -6.7564646428        0.8756290124
 H        -2.7533570152       -6.0765756256       -2.2863360759
 H        -1.6433475343       -5.4184546838       -3.3664956685
 H        -1.9792284274       -1.3746205950       -4.7979118277
 H        -0.6693442456       -2.4686006633       -4.5559858035
 H        -4.3563776876       -5.4423080757       -4.3165170334
 H        -5.3925128498       -4.0755039052       -4.9030845240
 H        -5.3653065236       -4.4629808146       -3.0738559226
 H        -4.9400121990       -1.9213759171       -2.8957356741
 H        -3.4551744085       -1.2038359780       -3.4854843570
 H        -4.5387915939       -1.6292921574       -4.6981241561
 H        -0.5417192732       -3.2049878183       -6.8756126117
 H        -2.0437927292       -2.5857514558       -7.3334025035
 H         2.3060550172       -0.6563465785       -6.7163385028
 H         1.4494548622       -1.8959778856       -5.8440321478
 H         3.0041657123       -2.2736357121       -6.6154401323
 H        -1.3647886878       -1.8199947036      -10.2047582829
 H        -0.9860020724       -3.1407978242       -9.1919488969
 H         0.3357152065       -2.7641596941      -10.4087354559
 H        -0.0640202273        0.4799976866       -9.4479632423
 H         1.5063681565        0.2457700334       -8.8330028228
 H         1.0908111318       -0.4631185229      -10.4305899202
 Na       -0.7768482264        2.4291656136        1.9931373404
