155

 C         2.8622899511        5.3645606802        2.7278303973
 C         1.7797801575        4.3252980297        2.9932991270
 C         1.5257189608        3.9492105528        4.4846215381
 C        -0.0273640720        4.2453756187        4.7991480346
 C        -0.5018851195        5.4093142458        5.6522340261
 C         1.7449406779        2.4053566783        4.6013115861
 C         2.4657725737        4.7206569421        5.4815935100
 O         1.1168064273        3.8743742247        2.0855144451
 O        -0.8585454472        3.5437573346        4.3026395277
 C        -2.0041907347        5.4503343794        5.7682536246
 C        -2.7419374487        6.1350084118        4.6027352201
 C        -4.4304002047        6.1305970883        4.7697573046
 C        -4.8839000983        5.4174696297        3.3393862513
 C        -4.6496479785        6.2872688378        2.1092987856
 O        -2.2286562860        6.5515867819        3.6097276578
 O        -5.0994868983        4.1916607167        3.3551196397
 C        -5.0086264287        5.3285382639        5.9174060061
 C        -4.9849300261        7.5954635333        4.7761976092
 C        -4.7885490287        5.3882885619        0.8097136186
 C        -3.9794452608        4.1295907804        0.8416366464
 C        -4.7123726575        2.8170684071        0.4189163686
 C        -3.8572400514        1.5788064831        1.0226475603
 C        -4.3272410974        0.6069594209        2.0978678607
 C        -6.1612522104        2.8836607045        0.8825839898
 C        -4.6479739886        2.6828463890       -1.1745223923
 O        -2.7993200736        4.1879099266        1.2590356012
 O        -2.7248362072        1.4388805318        0.6128886790
 C        -3.2766289053       -0.5386721033        2.1375876462
 C        -1.8689709334       -0.2491300258        2.8115296958
 C        -0.5360112659       -1.1627198239        2.7452074054
 C         0.5996089147       -0.4637694215        1.9160995581
 C         1.8619125431       -1.3091664525        1.5993983068
 O        -1.8156379735        0.7299531672        3.5420861306
 O         0.6757312094        0.7675895508        1.7115209319
 C         0.1862875220       -1.2357655063        4.1229004028
 C        -0.9268126400       -2.6180592191        2.2412328980
 C         2.8383343386       -0.6382016244        0.5524619041
 C         4.2559608177       -1.0415792339        0.8879735793
 C         5.2414317261       -1.0722961196       -0.4094450563
 C         4.5936568355       -2.1218586117       -1.3719122139
 C         4.6370337358       -3.6903877291       -1.0402620243
 C         5.3395286346        0.2981641210       -1.0996999567
 C         6.5974299915       -1.4792041739        0.2463220720
 O         4.6602989315       -1.2086701592        1.9921155037
 O         3.9398510620       -1.7230685916       -2.3173588189
 C         3.4554581361       -4.4769561962       -1.4726281484
 C         2.5986237643       -4.9197460747       -0.3650765275
 C         1.3715098039       -6.0004638761       -0.5810764785
 C         0.3673218479       -5.2559612398       -1.4556664336
 C        -1.1543816673       -5.3343379822       -1.2190325680
 O         2.6757050947       -4.4048758934        0.7274181615
 O         0.7370562100       -4.5547995540       -2.3765748517
 C         1.9628037044       -7.1025757659       -1.4894379203
 C         0.7351673034       -6.5133773980        0.7260355610
 C        -1.8219447286       -4.8057750775       -2.5474905157
 C        -2.8140583760       -3.7705065155       -2.3780431499
 C        -3.5575181741       -3.4142896175       -3.7000152489
 C        -2.6049369071       -3.4470521548       -4.9544628934
 C        -1.5690669044       -2.2777009521       -5.3604354754
 C        -4.6022894744       -4.5481985435       -3.8942798373
 C        -4.3463982979       -2.0856795121       -3.7360597007
 O        -3.0260010106       -3.1672086960       -1.3749080213
 O        -2.4745691454       -4.4998463807       -5.5692256916
 C        -1.2331860880       -2.3563687441       -6.8156542380
 C        -0.6040126062       -1.1363539268       -7.5219149664
 C         0.3667354328       -1.3019870419       -8.6654722556
 C         1.6163700400       -2.1084007775       -8.0493307277
 C         2.2178430932       -1.3809726973       -6.8211586313
 O        -0.9021490215       -0.0016712445       -7.1555504382
 O         2.1636533040       -3.1137286590       -8.4630834911
 C        -0.2897458393       -2.4017548678       -9.6133730747
 C         0.6798890434       -0.0938859582       -9.4767969930
 H         3.8236424738        5.0403985466        3.1396234899
 H         2.9796944084        5.6876759584        1.6460522522
 H         2.5780495432        6.3084864530        3.2478251795
 H        -0.0706567170        5.3068485585        6.6166160683
 H        -0.1378863445        6.3662474138        5.1351501344
 H         2.7998908249        2.1401428174        4.2778352049
 H         1.0093060622        1.7550117208        3.9625497913
 H         1.7873181021        2.0832142113        5.6287972644
 H         2.2398741469        5.7716135948        5.4790241097
 H         2.2871515920        4.3636173442        6.4748737274
 H         3.4840472151        4.5703526090        5.3801293739
 H        -2.3269945775        4.3981664240        5.8094487063
 H        -2.1752983107        5.9874073969        6.7126376751
 H        -5.4097285279        7.0471515936        1.9731840678
 H        -3.6107804766        6.6994356096        2.1462113383
 H        -4.7248794601        4.2596007289        6.0416786625
 H        -6.0908530751        5.4436690713        5.9108612988
 H        -4.8105691535        5.7958307469        6.9065449869
 H        -5.0277370466        8.0754995199        5.8331379915
 H        -4.3149227039        8.2418808733        4.1963219840
 H        -6.0183692080        7.5503918290        4.4347398775
 H        -4.5774656252        5.9606401133       -0.0816660015
 H        -5.7936708172        5.1193460234        0.6510864787
 H        -4.4930281174        1.0414864375        3.1399888724
 H        -5.3009062296        0.1581233416        1.9007966343
 H        -6.2998207003        3.3400693409        1.8600871529
 H        -6.5588244390        1.8866754919        1.0183652151
 H        -6.7592138868        3.2724556526        0.0573660102
 H        -5.1814601364        3.5058945066       -1.6263933715
 H        -3.6616462799        2.7555495498       -1.4953837140
 H        -5.2297400182        1.7510031139       -1.4070383294
 H        -3.7745054960       -1.3425571783        2.7147374083
 H        -3.2105383939       -0.9997074697        1.1358971615
 H         2.4303952114       -1.3891221754        2.5344721823
 H         1.5605992680       -2.3587885364        1.3507429894
 H         0.0078669048       -0.3774457579        4.8727131241
 H         1.2877681757       -1.2782757380        4.0554537360
 H        -0.1828141213       -2.0999515039        4.6487733403
 H        -0.0393496322       -3.2410258720        2.2999172764
 H        -1.6416532962       -2.9527776801        2.9969722891
 H        -1.2403105128       -2.4076475726        1.2744691963
 H         2.7325352344        0.4344617342        0.7081906895
 H         2.5987173743       -0.8694213170       -0.4674182518
 H         5.5627082070       -4.1211430518       -1.4956538750
 H         4.6904873964       -3.7817428682        0.0504659813
 H         5.9471609324        0.0698492886       -1.9874099178
 H         5.9588993279        0.8882645723       -0.5546187719
 H         4.4302160823        0.7426630455       -1.5183392807
 H         6.4186652845       -2.5717477330        0.6554612476
 H         7.4009065539       -1.4926360121       -0.4496230306
 H         6.7422787715       -0.7202126520        1.0924830507
 H         2.8188644640       -3.7729236288       -1.9849038524
 H         3.7026794123       -5.1769234471       -2.1991854830
 H        -1.3404581031       -6.3364623279       -1.0016179053
 H        -1.4537097570       -4.7171908459       -0.3429989773
 H         2.3854311857       -6.7811507703       -2.4649360118
 H         1.2904196649       -7.8016271677       -1.9236326615
 H         2.6538729132       -7.6906831422       -0.9093233105
 H         1.4289288114       -7.1635642609        1.2317467498
 H         0.4482160933       -5.6556405705        1.2849417470
 H        -0.1199074859       -7.1598843352        0.5179345405
 H        -2.0577589792       -5.6313462782       -3.2295337890
 H        -0.9099633979       -4.3616349484       -3.0480420870
 H        -1.9375200376       -1.3067871555       -5.0011581566
 H        -0.7227422513       -2.4865178525       -4.7836882068
 H        -4.1590913025       -5.5265108553       -3.8600160262
 H        -5.0154071399       -4.5191413790       -4.8748442045
 H        -5.3727311828       -4.4018600251       -3.1789581728
 H        -4.9578048811       -2.0499968217       -2.8028837473
 H        -3.6557958769       -1.1961690802       -3.6582597800
 H        -4.9115720301       -1.9402113931       -4.6228131614
 H        -0.4637140096       -3.1674501807       -6.9151691943
 H        -2.0757749119       -2.7070054415       -7.4107342157
 H         2.0877268560       -0.3228486240       -6.9176714008
 H         1.5260531652       -1.5581805678       -6.0238119599
 H         3.1607340134       -1.5711897108       -6.4730584880
 H        -1.2601362634       -2.1420344005       -9.7907455056
 H        -0.2964805112       -3.5211885197       -9.3323075476
 H         0.3094671413       -2.2984760058      -10.4398521791
 H        -0.2382044164        0.3454895906      -10.0007100625
 H         1.1724963944        0.7186454309       -8.8269360915
 H         1.3247611619       -0.5423384043      -10.2106098508
 Na       -1.1447543609        2.6573575694        2.1097325415
