155

 C         1.6847744362        6.0560933747        2.4476140806
 C         0.9397514177        4.8446024967        2.9972870233
 C         0.7143134511        4.6575590887        4.5711875344
 C        -0.8548995591        4.3546673245        4.7853571138
 C        -1.7875829288        5.2798257528        5.7840050691
 C         1.5015616610        3.4217193668        5.1190989512
 C         1.2569024452        5.8408025772        5.4032667320
 O         0.4621735188        4.0288733102        2.2383154461
 O        -1.4485480809        3.3102242621        4.4702469964
 C        -3.2632546975        5.3832670958        5.3042164273
 C        -3.5032191658        6.3166213260        4.0615277365
 C        -5.0790717849        6.5311696439        3.6481010887
 C        -5.5180005480        5.0259295647        3.1104622980
 C        -5.3126455696        4.9145874742        1.4791120496
 O        -2.6067478847        6.7927220236        3.3964133963
 O        -5.9322724583        4.0943504913        3.7258813442
 C        -6.1282783680        6.9203534525        4.7190297616
 C        -5.0242275461        7.5878176976        2.5166744843
 C        -5.5024841619        3.4774819833        0.9039475889
 C        -4.0160156508        2.8506759556        0.7607124902
 C        -3.6163382376        2.0710982476       -0.4720655309
 C        -2.8263837201        0.7908991954        0.1174391045
 C        -3.6880708909       -0.3899742497        0.4944134149
 C        -4.8308114737        1.7951156256       -1.4724202752
 C        -2.5707611826        2.9926443998       -1.1721483567
 O        -3.2689144535        3.0726523418        1.6647264833
 O        -1.6957933295        0.8652040970        0.5584160471
 C        -2.9697010112       -1.5302854897        1.3469268937
 C        -2.0224147705       -0.8093947113        2.4475894019
 C        -0.6204074119       -1.5767087794        2.7432381503
 C         0.5237210938       -0.6911100522        2.0514904647
 C         1.0010459978       -1.0387499658        0.6890811703
 O        -2.5520133150        0.0986760120        3.0643971523
 O         0.6055224473        0.4805786077        2.4883553274
 C        -0.4644822720       -1.6077803403        4.2727661323
 C        -0.6061428761       -2.9902193036        2.2595479289
 C         2.5590231990       -0.5939763528        0.4928688276
 C         3.4157648813       -1.2524703085        1.7028160615
 C         4.9156784347       -1.4501890970        1.5452946303
 C         5.0468032072       -2.6987875207        0.5474645863
 C         4.5963098229       -4.0884313569        1.0195310354
 C         5.6089036078       -0.2099839779        0.8308315671
 C         5.5813484322       -1.8111793853        2.8235341252
 O         2.7532905956       -1.6423960436        2.6204212101
 O         5.7022480427       -2.6964001978       -0.4610844072
 C         4.3526523598       -4.9194269629       -0.2282599001
 C         2.8173291823       -5.0885031496       -0.4074536384
 C         2.3357904961       -6.0825691787       -1.5255962812
 C         1.1551071110       -5.4481765478       -2.4386515827
 C         0.2451076746       -4.2741755189       -2.0059254531
 O         2.0362906722       -4.5525630971        0.3471319781
 O         0.8605481049       -6.0072519846       -3.4878588104
 C         3.5667387085       -6.5654330764       -2.4033447008
 C         1.6867823184       -7.3785855243       -0.9578669080
 C        -0.3048875362       -3.4912580873       -3.2139911856
 C        -1.7003281552       -2.8940454724       -2.8700228490
 C        -2.9910168866       -3.4095101630       -3.6437677049
 C        -2.8200016802       -3.1703329444       -5.1907399237
 C        -2.5148976566       -1.7116290479       -5.7243358148
 C        -3.2024981571       -4.9464028589       -3.2853652540
 C        -4.2382639392       -2.6217015761       -3.2071698074
 O        -1.8490493431       -1.9634755264       -2.1098607472
 O        -3.0630749145       -4.0373270027       -6.0337749612
 C        -1.6271937021       -1.8412639558       -6.9847692623
 C        -0.5543646099       -0.6686857484       -7.0067939093
 C         0.7143550135       -0.8392509192       -7.8555830428
 C         1.7889579688        0.1730522817       -7.3501706530
 C         1.7000674190        1.7513334899       -7.5992590606
 O        -0.8289946732        0.3744605684       -6.4689806243
 O         2.7634835340       -0.3405732466       -6.8392284539
 C         1.1778756099       -2.3357654286       -7.8317582757
 C         0.3328055087       -0.4153472403       -9.4442670772
 H         2.7867065096        5.9576577356        2.8140246108
 H         1.8078062137        6.0739794247        1.3330566059
 H         1.2112725316        7.0490500356        2.7943400828
 H        -1.7538215352        4.7475715604        6.7159870476
 H        -1.3344579992        6.2931603692        5.8788775443
 H         2.4951621524        3.5639371712        4.8149323560
 H         1.1111171623        2.4901880833        4.7237548183
 H         1.3740136214        3.3114922244        6.1401566484
 H         0.7251881296        6.7789233130        5.0945960714
 H         1.1075834838        5.5959869433        6.4640315056
 H         2.3198178959        5.9723769918        5.3099833611
 H        -3.5917982453        4.3782465124        5.0663829322
 H        -3.9124440958        5.8644808697        6.1425083249
 H        -6.1202485225        5.6326569316        1.0963573918
 H        -4.3877654715        5.4222270810        1.1801162995
 H        -6.3110677711        6.0681278885        5.3305900131
 H        -7.1468001138        7.0753496679        4.2860959834
 H        -5.7591333766        7.7196614818        5.3204394300
 H        -4.7155242879        8.5557813221        3.1148911239
 H        -4.2378219244        7.4366061556        1.8027774896
 H        -5.8893738469        7.8660283144        1.9695114890
 H        -6.1422607282        3.4972330838       -0.0053184002
 H        -6.0735003422        2.9262514919        1.6438087168
 H        -4.5795621514        0.0510582013        0.9618550334
 H        -4.0809578638       -0.9156311462       -0.3558541777
 H        -5.7643166378        1.7130954205       -0.8839750318
 H        -4.5243091027        1.0376643351       -2.1720438603
 H        -4.9644370178        2.6619630388       -2.1420984172
 H        -3.0422277422        3.8594104279       -1.4471443163
 H        -1.7352755414        3.2684331479       -0.4482723577
 H        -2.0548596454        2.5627513150       -2.0338587177
 H        -3.6582045006       -2.1292378798        1.8765229063
 H        -2.3701035387       -2.2165107350        0.7636758717
 H         0.8661269098       -2.0588782859        0.5543820150
 H         0.2871006078       -0.5983931815        0.0236373049
 H         0.5616497220       -1.7663084339        4.6315651303
 H        -0.9910835738       -2.5356049107        4.5677682721
 H        -0.9514764420       -0.7811609272        4.7338455452
 H         0.3369183476       -3.2906940471        2.7304683542
 H        -1.4637720493       -3.5642819804        2.6649595922
 H        -0.5635032656       -3.0333164114        1.1865493143
 H         2.8004613695        0.5048592428        0.3036506012
 H         2.8268568071       -1.2394303587       -0.3602706533
 H         5.3908556529       -4.4859903850        1.6400836639
 H         3.6415849574       -4.0433853497        1.5969951858
 H         6.7283405880       -0.2780078306        0.8803781021
 H         5.3299953249        0.5676054203        1.4414350497
 H         5.1951069935        0.1045105884       -0.0909307118
 H         4.9443437950       -2.3109367540        3.6392075328
 H         6.4335597489       -2.3794848562        2.6609975996
 H         6.0121403738       -0.9236188462        3.3558993309
 H         4.8755351449       -4.3612543761       -0.9819438011
 H         4.8626160888       -5.8752034961       -0.1307186888
 H        -0.4549869242       -4.9413477299       -1.4943165707
 H         0.6639570185       -3.5830814861       -1.2226472077
 H         4.2819521397       -5.7328456095       -2.7678864089
 H         3.1165930379       -7.0685756130       -3.2415964827
 H         4.1854763501       -7.2481669906       -1.8912190836
 H         2.4123844608       -7.9433740954       -0.3632367355
 H         0.8116055042       -7.0362399504       -0.3536992055
 H         1.1494927784       -7.8981493162       -1.7525591216
 H        -0.3859009489       -4.2512877370       -4.0455661441
 H         0.3328113618       -2.6811315874       -3.6274545141
 H        -3.4726103188       -1.3221689928       -6.0184488408
 H        -2.1394181560       -1.1376525356       -4.9025212629
 H        -2.5868023870       -5.5959566539       -3.9935326110
 H        -4.2997132419       -5.2042121802       -3.2876906495
 H        -2.8293757109       -5.1416065178       -2.2684064637
 H        -4.4561922821       -2.6998321172       -2.1534258697
 H        -4.1399218240       -1.6057367210       -3.4444370593
 H        -5.1275804259       -3.1372117677       -3.5586396205
 H        -1.0642056092       -2.7438461335       -6.8081153520
 H        -2.0959634428       -1.8420570718       -7.9853740952
 H         1.6004221636        1.9532523429       -8.7220374820
 H         0.8278346760        2.1718081717       -7.0411396183
 H         2.6463559674        2.1280425612       -7.1612984648
 H         0.5138550131       -3.0285636478       -8.3088152667
 H         1.4738255265       -2.6489492780       -6.8870473367
 H         2.0728119590       -2.5051717120       -8.4278603734
 H        -0.5137556889       -0.7408644840       -9.9014763927
 H         0.1198184499        0.6794990149       -9.3548106245
 H         1.1142595752       -0.4369144980      -10.1488340638
 Na       -1.0361311404        2.1215860235        2.5885717875
