155

 C         0.9315244156        6.3776559235        2.4077329753
 C         0.3392705631        5.0102803440        2.8349665879
 C         0.1493611081        4.6145411124        4.3683019760
 C        -1.3225228070        4.2169941946        4.6386955483
 C        -2.1257272537        4.9167101201        5.7970461951
 C         0.8798407642        3.2998808545        4.8399193415
 C         0.7144038968        5.6848554359        5.3463975733
 O         0.0878147138        4.1653435338        2.0084358179
 O        -1.8484500278        3.3314115837        4.0043607764
 C        -3.5659187872        5.1451807487        5.3382193096
 C        -3.4653830698        6.1085817485        4.1651164727
 C        -4.9125650814        6.4850591448        3.5530724386
 C        -5.4328018796        5.2276101352        2.8201998733
 C        -5.8004021405        5.0779604745        1.1784342590
 O        -2.5057780503        6.4051224649        3.4860109768
 O        -5.6820642971        4.2383417776        3.5033237369
 C        -5.8509419498        6.8266247355        4.7490697931
 C        -4.7439034674        7.7138919695        2.6449489019
 C        -5.7494902509        3.5349570447        0.8456817556
 C        -4.1695323525        3.0429329795        0.7717656466
 C        -3.5805775384        2.1571343173       -0.4517583494
 C        -2.8182585994        0.8797508731        0.0300892071
 C        -3.6231311631       -0.2483427846        0.5909939665
 C        -4.7334701764        1.7896798015       -1.4246550281
 C        -2.5526612225        3.0488167024       -1.1388385669
 O        -3.4088797101        3.2643652408        1.6511739952
 O        -1.5975001603        0.7957173899        0.0307741431
 C        -2.8244027402       -1.4280839132        1.0987823109
 C        -2.0450583791       -0.9109745012        2.3712780199
 C        -0.6694881271       -1.5382642374        2.7472401138
 C         0.4835583152       -0.6440443738        2.0014738808
 C         1.3974242110       -1.2983458918        0.7618390089
 O        -2.3670511309        0.1434177328        2.8673171363
 O         0.5671617166        0.5657724880        2.2467903296
 C        -0.5295612565       -1.4382726934        4.2971070696
 C        -0.6284727515       -3.1362656063        2.3967733878
 C         2.8497378400       -0.7384341758        0.9506711738
 C         3.5884668742       -1.3703765278        2.1812897383
 C         5.1291672935       -1.7112444686        1.7967096803
 C         5.1920336961       -2.9202340832        0.7757892834
 C         4.6551203875       -4.3547810516        1.1846596002
 C         5.8481214463       -0.3845448091        1.2377501540
 C         5.7946056350       -2.1044295326        3.1847517327
 O         3.0164437392       -1.7953434200        3.1482214170
 O         5.7719224770       -2.7544697148       -0.2554463278
 C         4.3642879263       -5.2735464254       -0.0356422645
 C         2.8625551286       -5.1817987501       -0.4612507881
 C         2.4399203251       -6.1063383950       -1.6314122165
 C         1.2270239006       -5.4572003611       -2.5569139374
 C         0.5865266131       -4.1088710909       -2.0602760159
 O         2.0142724346       -4.5136654268        0.1185541540
 O         1.1495034226       -5.7970744016       -3.7124639951
 C         3.5491577690       -6.5640501200       -2.5810232933
 C         1.9495346226       -7.4315913462       -0.8865409882
 C        -0.1856944620       -3.5448730689       -3.2469319303
 C        -1.5853607714       -3.0404008790       -2.7986988597
 C        -2.8105225122       -3.5176904171       -3.5619833231
 C        -2.7184375925       -2.9944103760       -5.0641140957
 C        -2.1683664845       -1.6158563474       -5.3454465158
 C        -2.9665476951       -5.0937527390       -3.5108210514
 C        -4.1091252702       -2.9534971006       -2.8858293131
 O        -1.6876036706       -2.3731995662       -1.7934085531
 O        -2.9875645975       -3.7135976160       -5.9857579152
 C        -1.6732259623       -1.5108488917       -6.7749545559
 C        -0.5600043273       -0.3994886687       -7.0401440173
 C         0.7215893495       -0.7667042029       -7.9147572124
 C         1.7719030942        0.4275807555       -7.2703003895
 C         1.5866550558        1.9236103216       -7.8324544704
 O        -0.8449020829        0.7260981454       -6.6422147451
 O         2.6650885579        0.1453213835       -6.5668599925
 C         1.3313477468       -2.1077162640       -7.5014135232
 C         0.3665173926       -0.4817630710       -9.3536239267
 H         1.8617515916        6.5540408246        2.9725682466
 H         1.2277660722        6.2644069229        1.2929831878
 H         0.2647206102        7.2031597765        2.6022245302
 H        -2.1493511186        4.2568962149        6.6457485102
 H        -1.6580830794        5.8545313663        6.0159931725
 H         1.9620618251        3.4708646923        4.6034043461
 H         0.5155502233        2.3838131775        4.2830326946
 H         0.7731979603        3.1256531468        5.8910948101
 H         0.3464438250        6.6974677690        5.1827376921
 H         0.5970898533        5.4182871070        6.4505321740
 H         1.8155624018        5.6468589768        5.3626244415
 H        -4.0133226213        4.2838949773        4.8606298814
 H        -4.1604841053        5.6455858107        6.1629985038
 H        -6.9018739265        5.3330624728        1.0616773874
 H        -5.1966950076        5.7087706555        0.5214163309
 H        -6.2225701088        5.8508857698        5.1741983016
 H        -6.7414865411        7.4266058900        4.3981321130
 H        -5.4070546613        7.4294989045        5.5978023251
 H        -5.0164983823        8.5583014344        3.2936777457
 H        -3.7513455734        7.6803840279        2.2333569704
 H        -5.4160589201        7.8706677183        1.8630899327
 H        -6.3614440770        3.3131293618       -0.0797643065
 H        -6.1806209291        2.9597513530        1.6954792935
 H        -4.2835939701        0.1638367508        1.3563335481
 H        -4.2992960299       -0.5691848397       -0.1750706697
 H        -5.6806903396        1.5659586957       -0.9709781284
 H        -4.2858766804        1.0054807585       -1.9825866163
 H        -4.8272903607        2.6636141527       -2.0580339492
 H        -2.9804563222        3.8630865482       -1.5490933584
 H        -1.6809051237        3.2615144076       -0.4729627022
 H        -2.0332917693        2.5439863313       -1.9149032741
 H        -3.4397098864       -2.2603676303        1.3656945079
 H        -2.0811994847       -1.7124876493        0.3584908549
 H         1.2553140366       -2.3812188002        0.7082410449
 H         0.8310828471       -0.8980833445       -0.1063250167
 H        -0.5707096943       -0.3735258310        4.6929282318
 H         0.3625341344       -1.9123375521        4.8341858432
 H        -1.4633502439       -1.8793221697        4.5996839650
 H         0.3800218506       -3.5361238133        2.6981107306
 H        -1.3872747081       -3.7232984310        3.0132273822
 H        -0.7512599639       -3.2085081991        1.3252002021
 H         2.8377545813        0.4102523681        0.9960080874
 H         3.4771699436       -1.1413005039        0.0956653295
 H         5.4385214211       -4.6525224870        1.8025633295
 H         3.7033322599       -4.3682911891        1.7172900563
 H         6.9818498607       -0.5062820840        1.0375465114
 H         5.6293188676        0.4748937584        1.8539759858
 H         5.4746184992       -0.1932524282        0.2909334687
 H         5.7285330231       -3.1520597503        3.3532538547
 H         6.9031970763       -1.9176542781        3.1507855883
 H         5.4923924334       -1.6186542901        4.0562391788
 H         5.0206584015       -4.9809138387       -0.8748765392
 H         4.6776115719       -6.3497312298        0.2625982757
 H        -0.0752063169       -4.1136614551       -1.1771225620
 H         1.4372400346       -3.4867653146       -1.7292603635
 H         4.0349004399       -5.7134886030       -3.1328208422
 H         3.1121022433       -7.1606642974       -3.3262178713
 H         4.3114986626       -7.0133584685       -2.0123347077
 H         2.7675844150       -7.8733267509       -0.3492771753
 H         1.1228001691       -7.1547996124       -0.2110778939
 H         1.6314887879       -8.1922047075       -1.6155328993
 H        -0.3830964616       -4.2486843824       -4.0739132286
 H         0.3086738088       -2.7113406753       -3.7140768921
 H        -3.0508837838       -0.9869609486       -5.2200862520
 H        -1.4481547181       -1.2598346150       -4.5654268300
 H        -2.1524942104       -5.5887495822       -2.9840039619
 H        -3.1352186512       -5.4399198683       -4.5073452382
 H        -3.8231407419       -5.3503954952       -2.8008909955
 H        -4.2364725625       -3.4158056289       -1.8869765160
 H        -4.2060977665       -1.8878756993       -2.7612335111
 H        -4.9681146154       -3.3077678771       -3.4414040817
 H        -1.2175175438       -2.4827958709       -6.9879289010
 H        -2.5058266346       -1.2087588877       -7.4437331015
 H         1.3754974350        1.7210423432       -8.8753623990
 H         0.7084246585        2.3484662073       -7.3847628143
 H         2.4313083915        2.5115447664       -7.5768843557
 H         0.7812442871       -2.9328920708       -8.1049308677
 H         1.3299925697       -2.4194189358       -6.5145151900
 H         2.4259261505       -2.1507855612       -7.7854200981
 H        -0.3914806476       -1.1309706356       -9.7124354929
 H        -0.1922937629        0.5043910494       -9.4462170969
 H         1.1759909218       -0.4843970776      -10.0374249934
 Na       -1.1802774970        2.1714047748        2.1280456209
