155

 C         1.3756518543       -9.9272177350       -0.9103553489
 C         1.2998509828       -9.9287440737        0.5467421306
 C         2.3040544597       -9.0664349441        1.3964130854
 C         1.6930397762       -7.5268534020        1.2706614010
 C         0.8387663516       -6.9627353742        2.3494534365
 C         2.2856331683       -9.4963179289        2.8554988472
 C         3.6816735603       -8.9339536925        0.8146887119
 O         0.4376855927      -10.5517049243        1.1527051984
 O         2.0477130202       -6.9268469221        0.3170905240
 C        -0.0083624313       -5.6617456520        1.9296096178
 C         0.8627543217       -4.3449572848        1.8726801822
 C         0.1233596683       -2.9470741858        2.1780026175
 C         1.1101193790       -1.7681312586        1.7949987008
 C         1.8576571750       -1.8691334623        0.3350690037
 O         2.0136168781       -4.3968020296        1.5988679600
 O         1.1773956611       -0.7761703619        2.5248598530
 C        -1.1280409994       -2.9439707607        1.2566136892
 C        -0.2432397924       -2.7757253080        3.7007315760
 C         2.9364526950       -0.7838721509        0.4175933774
 C         2.3169611659        0.5928869307       -0.0935740467
 C         2.6823398156        2.0016895570        0.6793879823
 C         3.2696906263        2.9156744516       -0.3982501172
 C         4.7087308104        3.5103011241       -0.2026647241
 C         1.2514630216        2.5466159771        1.1243741582
 C         3.4735824907        1.8481743218        1.9820165296
 O         1.5302499942        0.5285976190       -1.0194608064
 O         2.5460814888        3.2218249352       -1.3361644212
 C         5.4646475589        3.4940431386       -1.5391997908
 C         5.9298302279        2.1868973090       -2.1327795321
 C         6.7429488717        2.1125691955       -3.4262205339
 C         5.5891160992        1.8856438441       -4.6139941617
 C         4.7815556680        0.4967747633       -4.7062481926
 O         5.6374864040        1.1383010672       -1.6063069032
 O         5.2524552249        2.8099246628       -5.3504212780
 C         7.6514971220        3.4041896198       -3.7054634917
 C         7.6007347876        0.8192771585       -3.3682758917
 C         3.6625005427        0.7330262880       -5.7591707769
 C         2.5176173603        1.6425279911       -5.1943512732
 C         1.4067450217        2.1606794413       -6.2243670584
 C         0.1788132879        2.6949638950       -5.3858560462
 C        -0.4826078608        4.0016037274       -5.7695639361
 C         1.8521666753        3.2018977340       -7.2504070128
 C         0.8950271669        0.7820972997       -7.0110105171
 O         2.4019525342        1.7129290929       -4.0152595656
 O        -0.3312679108        2.0360627010       -4.4945230773
 C        -1.5887256589        4.5044410173       -4.8005707467
 C        -1.2512161806        4.5809950705       -3.3245766625
 C        -2.4194602336        4.3952250753       -2.1085807027
 C        -2.5485894755        2.7957737041       -2.0130126924
 C        -3.9142089306        2.2621769114       -1.6828831971
 O        -0.1166461315        4.5221221698       -2.9290157504
 O        -1.5516876657        2.0821069425       -2.1499796043
 C        -1.7264025874        4.8931449472       -0.8029012800
 C        -3.5908121920        5.2257185379       -2.5112233780
 C        -4.4063300997        2.7050839933       -0.3209795926
 C        -3.8174660944        1.7012512216        0.6932072970
 C        -3.8291047293        1.8088855485        2.3368725217
 C        -5.2784947050        1.7061393718        2.9521848067
 C        -5.3762015796        1.2321483519        4.4182902684
 C        -2.9178829355        0.6672642273        2.7933096152
 C        -3.1363280243        3.1967215732        2.7735608682
 O        -3.4200955879        0.5910133264        0.3239943924
 O        -6.2734950191        1.9546647187        2.3114577207
 C        -6.8325649128        1.1947677842        4.8879814188
 C        -7.2445396981       -0.2073415748        5.4227403647
 C        -8.7699148395       -0.5191674516        5.6405310250
 C        -9.4126700502        0.4961396789        6.6198509313
 C       -10.3271344392       -0.0633439574        7.7060381811
 O        -6.3799557771       -1.0642114824        5.4516852356
 O        -9.1939133168        1.7149047596        6.6425737630
 C        -9.4601739503       -0.4190600318        4.1851563605
 C        -8.8154304809       -2.0381667667        6.2100852716
 H         2.2974992817      -10.5302941055       -1.2022653713
 H         0.5716292140      -10.1732737603       -1.4605053022
 H         1.6510009751       -8.9311619913       -1.2364562220
 H         0.0449599558       -7.7831912734        2.7343293923
 H         1.5259952317       -6.7318310801        3.1513693400
 H         1.4107268614       -9.6646314836        3.4540078391
 H         2.8073420321       -8.7285509983        3.3925183165
 H         2.9235197525      -10.3736664075        2.9809684005
 H         3.7136255056       -8.0034706588        0.3215558623
 H         4.4084692584       -9.1469667752        1.5912872771
 H         3.9396502144       -9.7802421591        0.1295987615
 H        -0.3752062556       -5.7545046983        0.9121470070
 H        -0.8669404792       -5.5389793793        2.5144577361
 H         2.3990736387       -2.8073168156        0.1473907257
 H         1.1860287988       -1.6879103963       -0.5556808639
 H        -1.9582299343       -2.2729413636        1.4662769776
 H        -1.5339351843       -3.9842199503        1.2821804427
 H        -0.8100597505       -2.8839497659        0.2088723256
 H        -1.3000967776       -2.9280579795        3.8725915642
 H         0.4036974819       -3.3427137378        4.3381627642
 H        -0.0114713820       -1.7123378899        3.9307153378
 H         3.8429836862       -0.8392841900       -0.2988479813
 H         3.4663665901       -0.7174724081        1.3999593319
 H         4.5417294804        4.5613008269        0.1090770178
 H         5.1874051953        2.9592167498        0.5897935024
 H         1.3095392624        3.3075815716        1.9114777592
 H         0.8324072885        1.6554015971        1.6186997229
 H         0.6930900413        2.8661945478        0.3406627218
 H         2.9732847655        1.1001897374        2.6503432657
 H         4.4877451996        1.4757172319        1.7205642860
 H         3.4859457050        2.8680502194        2.4713912810
 H         4.8594549447        4.0463962504       -2.2413919166
 H         6.3978626597        4.1022004939       -1.4331304526
 H         5.2894079132       -0.4814606093       -4.9677245010
 H         4.2276467150        0.2567423713       -3.7387154839
 H         8.2993550552        3.5471172157       -2.8470687038
 H         7.2006266364        4.3835002038       -3.9465958541
 H         8.3301771725        3.3335136224       -4.5854226223
 H         8.0361502055        0.3732718150       -4.2797121938
 H         8.5310597866        1.0937248902       -2.7737235270
 H         7.1234219419        0.0880863805       -2.7768128871
 H         3.1470011594       -0.2119523553       -6.1594491747
 H         4.0318806295        1.1763287325       -6.6605308813
 H         0.3152482375        4.7785101695       -5.8628775401
 H        -1.0317928691        3.8436444143       -6.7643551785
 H         2.6916286610        2.8439350813       -7.8174305221
 H         2.0343927630        4.1107381164       -6.8348944758
 H         1.0075713527        3.3949803975       -7.9277978740
 H         1.1772468098       -0.0654977942       -6.4744084608
 H        -0.1983889658        0.8308457823       -7.1443081645
 H         1.3503992446        0.6345494879       -7.9970412088
 H        -1.9850585517        5.4851737849       -5.2201880928
 H        -2.5110927774        3.8815767263       -4.8114612927
 H        -4.6374482628        2.4405218051       -2.4781120931
 H        -3.9994154151        1.1546317683       -1.8091713212
 H        -1.0852225873        4.1381808024       -0.4827748256
 H        -2.4729849013        5.1039768689       -0.0438829234
 H        -1.0488453491        5.7007206105       -1.1281563034
 H        -4.2283407263        5.1969475143       -1.6333387488
 H        -3.1993635136        6.1948383625       -2.4560395003
 H        -3.9477405849        4.9999492986       -3.5279197742
 H        -5.4575631439        2.4735558921       -0.2270571758
 H        -4.2178404632        3.7613581884       -0.0442907070
 H        -5.0516127397        0.1977993923        4.5539207047
 H        -4.6989978717        1.9376459161        4.9148524786
 H        -1.9619014408        0.6324868147        2.1969226236
 H        -3.3450699975       -0.3488740434        2.6879675701
 H        -2.5695705117        0.8900388801        3.8141600724
 H        -2.4364007789        2.9675417256        3.5377544123
 H        -2.6959871236        3.7661474940        1.9485136773
 H        -3.8507683253        3.9329733275        3.2039357613
 H        -7.0181319892        1.9331831219        5.6143109226
 H        -7.5051601187        1.4929549739        4.1187597905
 H        -9.6863074925       -0.6890928436        8.3492709832
 H       -10.7297298806        0.7487400590        8.3180527735
 H       -11.0707918940       -0.7299680509        7.2747744667
 H        -9.4288940197        0.5374493720        3.7450199138
 H       -10.5290281196       -0.6238405151        4.2577041590
 H        -9.0643097164       -1.1436170768        3.4915672936
 H        -9.8190578246       -2.4368250680        6.3131536821
 H        -8.2711280158       -2.6190349630        5.4886497740
 H        -8.3268662192       -1.9803172713        7.1765664321
 Na        0.6834262970        2.4527229322       -2.3594239098
