155

 C        -0.4168889815        6.6434936589        2.6253539992
 C        -0.4674037257        5.1334059906        2.8831391703
 C        -0.3142276493        4.6542487459        4.4025538980
 C        -1.5396209601        3.6544656877        4.6147232648
 C        -2.6852540689        4.0649021231        5.4559878559
 C         1.0626998028        3.8621541124        4.3105375642
 C        -0.2448524645        5.7777036963        5.4803247396
 O        -0.4120741340        4.2182007867        2.0965752299
 O        -1.5319008201        2.5333485392        4.1569297273
 C        -3.9916909728        4.0979484496        4.5916247968
 C        -4.2067055278        5.3804095722        3.8246891982
 C        -5.5913824778        5.9200921148        3.3690931959
 C        -5.6818950751        5.3147661125        1.7279192707
 C        -4.7256148333        5.8094258764        0.7294687142
 O        -3.2308386612        6.0885813540        3.5652787632
 O        -6.4383542846        4.4109832391        1.5270747014
 C        -6.8207681060        5.4022828083        4.1195935086
 C        -5.6008437974        7.4453299924        3.1696240912
 C        -4.5057194613        4.8579263573       -0.4566085136
 C        -3.8354304353        3.5484467934       -0.0804858727
 C        -4.1116053231        2.1834583357       -0.8555469035
 C        -3.1685396341        1.0161487092       -0.5327547438
 C        -3.7860230380       -0.2866928501       -0.0636266003
 C        -5.5795651085        1.7745956977       -0.5177192716
 C        -4.1148156150        2.4541948295       -2.3217780588
 O        -3.0737334123        3.6146455891        0.8993613015
 O        -1.9735721959        1.1475961188       -0.5088759355
 C        -2.8429655826       -1.3853742978        0.4321031848
 C        -2.1638926241       -0.8672923653        1.6695707886
 C        -0.7291109921       -1.5344061606        2.1980437951
 C         0.3689623517       -0.6077057810        1.6598317808
 C         1.6259525928       -0.9823007673        0.7374162329
 O        -2.5491587984        0.1997782961        2.1668845768
 O         0.2482552367        0.5982949645        1.8331343106
 C        -0.4898121347       -1.3010399281        3.7953742728
 C        -0.5838337322       -2.9080696889        1.6170053803
 C         3.0134103101       -1.0589586219        1.3471568056
 C         3.1017804095       -1.9938475124        2.5644326226
 C         4.5863995091       -2.3845086888        2.9701884222
 C         5.2634198000       -3.0802976884        1.8275764357
 C         5.3090140098       -4.6570131578        1.8035592271
 C         5.2995503017       -1.0189861207        3.3309049408
 C         4.4612988213       -3.3440677041        4.2841259674
 O         2.1398167283       -2.3573255717        3.2141865716
 O         5.7651105211       -2.4190595327        0.9062315427
 C         5.1778465839       -5.1387467882        0.4178723432
 C         3.7432386356       -5.5453314078        0.0394403483
 C         3.5072645594       -6.3774902989       -1.2587316096
 C         2.4901735834       -5.6003957847       -2.0702977092
 C         0.8963116308       -5.5090347196       -1.7707202048
 O         2.7716846093       -5.2915739327        0.7168590497
 O         2.9238565336       -4.9662684155       -3.0204970249
 C         4.8529039314       -6.7241508662       -1.9569093251
 C         2.9287564473       -7.8135877757       -0.8016170119
 C         0.1466453321       -5.0690790183       -3.0327219527
 C        -0.9834581454       -4.0771742709       -2.7329160250
 C        -2.1853711204       -3.7505965964       -3.7572835043
 C        -1.5722013380       -3.0064565024       -5.1255432839
 C        -1.8410185268       -1.5417238770       -5.3765726727
 C        -2.8593530290       -5.1212423731       -4.2895965444
 C        -3.2714210156       -2.9133753110       -3.1762826632
 O        -1.0010579977       -3.3740206464       -1.7576978079
 O        -1.0118906349       -3.7399268709       -5.8835775085
 C        -1.0639650615       -1.0722321626       -6.7315265746
 C        -0.6674175436        0.4294996975       -6.6811558586
 C         0.8346225341        0.6932863529       -7.0834328153
 C         1.1280815069        2.2787915648       -6.8959843901
 C         0.3634975941        3.1644876529       -7.8088091308
 O        -1.3743947149        1.3429460599       -6.2081725206
 O         1.9922090135        2.6100895870       -6.1735793923
 C         1.8533705989        0.0106539204       -6.1109956506
 C         1.0579291450        0.2600557147       -8.5449442807
 H         0.4396037142        6.7542075505        1.8943545752
 H        -1.2999921738        7.0527484525        2.0573519462
 H        -0.2020723581        7.1429255725        3.5705262015
 H        -2.8838040692        3.4055699323        6.2841808860
 H        -2.6736002066        5.1823235847        5.7611166217
 H         1.8977274586        4.5253630780        4.2242252165
 H         1.0524420827        3.1776366968        3.4129427254
 H         1.1212565189        3.2470323808        5.2431764836
 H        -0.9643683177        6.6430438720        5.3392249304
 H        -0.4193670714        5.3655125792        6.4481941680
 H         0.7164108981        6.2333587041        5.3203679434
 H        -3.9659232153        3.2307961384        3.9066188848
 H        -4.8704229256        3.7827824687        5.0886824209
 H        -5.0171217710        6.7843117740        0.2464666095
 H        -3.7163508344        5.9970083687        1.1650473392
 H        -6.8134954776        4.3900680434        4.5238639987
 H        -7.7395414609        5.4751851785        3.4747397139
 H        -6.8457090211        5.9237053981        5.0476962872
 H        -6.1751237549        8.0271336668        3.9803692451
 H        -4.5776257688        7.7074301028        3.1479861184
 H        -5.9860440475        7.7051969926        2.2354129671
 H        -3.7490387048        5.4011074546       -1.0775215007
 H        -5.4208032357        4.8496943052       -1.0805601374
 H        -4.4611121915       -0.0274165651        0.7003259521
 H        -4.3306545788       -0.6484407621       -0.9400154606
 H        -5.7313184211        1.4986713474        0.5145127108
 H        -5.9583759847        0.9103403289       -1.0489504328
 H        -6.2428943079        2.5609521467       -0.6851805949
 H        -4.7115629438        3.2261585943       -2.5768516662
 H        -3.0882124255        2.6307804683       -2.7396720352
 H        -4.4233864313        1.6653013115       -2.9622776915
 H        -3.3819763906       -2.3450724478        0.5342632699
 H        -2.1237256379       -1.7685340683       -0.2612849472
 H         1.4259640294       -1.8507030231        0.1312243868
 H         1.6078624617       -0.1562976245        0.0414915017
 H        -1.0581853088       -2.0281512579        4.3869847252
 H        -0.9390960956       -0.2954791714        4.0431167520
 H         0.5633132499       -1.2784790719        4.0912336584
 H         0.2457073538       -3.5057571914        1.9958832476
 H        -1.4900562787       -3.4342604284        1.9749806171
 H        -0.6106057501       -3.0426834515        0.4856001555
 H         3.0113537055       -0.0233587206        1.7332246102
 H         3.8631356669       -1.2587554367        0.6254145462
 H         6.2853956875       -4.8462237274        2.2782228967
 H         4.4887373578       -5.0182913376        2.4099341734
 H         6.2666441908       -1.2339519910        3.8926455083
 H         4.7730715306       -0.3993401908        3.9483209383
 H         5.5666964224       -0.5211197522        2.4311126483
 H         3.5989805755       -3.9333760702        4.0283042591
 H         5.3603373446       -3.9066940722        4.5498720082
 H         4.2818971987       -2.7093284717        5.1211917846
 H         5.5540307541       -4.3135566982       -0.2093089399
 H         5.9038204430       -5.9125552170        0.2004723950
 H         0.4321611357       -6.4518081703       -1.3861220187
 H         0.6855178229       -4.7715010498       -1.0099950559
 H         5.3498622838       -5.7707950323       -2.2520848180
 H         4.6629692681       -7.2904950001       -2.8442354159
 H         5.5394042475       -7.2906945058       -1.3721545954
 H         3.6196498531       -8.3973147588       -0.1792701292
 H         2.0546134638       -7.7989202790       -0.1867642485
 H         2.7887264333       -8.4229570782       -1.6782769984
 H        -0.3113714627       -5.8207149288       -3.7452702935
 H         0.8740558523       -4.5320842934       -3.6380293577
 H        -2.8883971904       -1.5010734970       -5.5016412427
 H        -1.5666861573       -0.9603834898       -4.4713618590
 H        -2.2354141834       -5.7828796406       -4.8697611500
 H        -3.7579307663       -4.8457661943       -4.8887749282
 H        -3.2529618391       -5.6603383487       -3.4901149948
 H        -3.5035930860       -3.3401691545       -2.2439306407
 H        -2.9454902084       -1.8914763724       -2.9960541213
 H        -4.0990962786       -2.8402962480       -3.9546908700
 H        -0.1898142935       -1.6729794446       -7.0145230895
 H        -1.8490931953       -1.0201340448       -7.5303289703
 H         1.0158828512        3.9286590827       -8.1180277172
 H         0.0030146703        2.6108218674       -8.6412107720
 H        -0.4880825416        3.6356746216       -7.3062356757
 H         1.7769005737       -1.1159842831       -6.2712841283
 H         1.6151937311        0.2603080818       -5.1405585798
 H         2.8621347500        0.3488147307       -6.4325364886
 H         1.1891415206       -0.8534427887       -8.5166333725
 H         0.2307735176        0.5592869456       -9.1873036484
 H         2.0526374412        0.5867638497       -8.9404057635
 Na       -1.3596312583        2.0912148355        1.6776218414
