155

 C        -0.2494667350        6.7503613697        2.5410044234
 C        -0.4533051043        5.2191361004        2.8728862827
 C        -0.3120300104        4.6478752264        4.3715115405
 C        -1.6403267096        3.7338521098        4.5892779236
 C        -2.8323533265        4.1392565799        5.4761509299
 C         0.9598911578        3.7457546627        4.6234608707
 C        -0.2479522253        5.8239027529        5.4652992665
 O        -0.5093622730        4.3902912989        1.9615303840
 O        -1.6231627184        2.5798518218        4.1504462498
 C        -4.1993270485        4.1322162594        4.6854180023
 C        -4.2488667213        5.3480383313        3.7344761122
 C        -5.5917683828        5.7805285106        3.2297495313
 C        -5.6254121309        5.2678140910        1.7620078723
 C        -4.5763955037        5.8143766499        0.7875237319
 O        -3.2621110566        5.9595937755        3.3993489240
 O        -6.3318099818        4.3413920722        1.3439419793
 C        -6.8940698416        5.2315392334        3.8662828547
 C        -5.7276634303        7.3328798753        3.2731408521
 C        -4.3925057274        4.8234749045       -0.5053353274
 C        -3.7577037964        3.5003454543       -0.0993830455
 C        -4.2752981988        2.2095918173       -0.7449023060
 C        -3.3384625736        1.0541892834       -0.4112882735
 C        -3.8248598711       -0.3830500788       -0.2596948334
 C        -5.7315003008        2.0790589098       -0.2984555270
 C        -4.1808777211        2.3669329810       -2.2344020069
 O        -2.8899494242        3.5283479556        0.7336630169
 O        -2.1494353921        1.2895876868       -0.4939039352
 C        -2.8453928786       -1.3457021428        0.3890881735
 C        -2.0471769958       -0.8203598653        1.5920779006
 C        -0.7490355707       -1.4031782591        1.9534077622
 C         0.4642405684       -0.4663797531        1.4288478124
 C         1.4540427160       -1.1652369861        0.5563260190
 O        -2.5168414459        0.0637102544        2.2869833391
 O         0.4779333488        0.7248862244        1.6834936416
 C        -0.7668012290       -1.4239533925        3.4398714210
 C        -0.6567834360       -2.9584850243        1.6294492289
 C         2.8633510773       -1.0691571362        1.3106369195
 C         3.0230064641       -2.0561822807        2.5054554362
 C         4.5118116358       -2.3336557862        3.1061128527
 C         5.2732611188       -3.1117983497        1.9285315997
 C         5.1685012919       -4.7041069976        1.9547077064
 C         5.2922525429       -1.0265687611        3.4905508160
 C         4.3685588726       -3.0860690198        4.3854670937
 O         2.0777510803       -2.5651877548        3.0103566191
 O         5.8797706701       -2.4661453083        1.1607771367
 C         5.0978980341       -5.2707847162        0.4637072922
 C         3.6613338893       -5.5765973488        0.1420716027
 C         3.5246241763       -6.3376525549       -1.2749057930
 C         2.6078073681       -5.4728698893       -2.2225594972
 C         1.1345499329       -5.3898216942       -1.8715751572
 O         2.7470524165       -5.4445540530        0.9293520981
 O         3.1338309276       -4.9521096435       -3.1594932331
 C         4.8279208894       -6.5797468100       -2.0576858763
 C         2.8626894650       -7.6566415460       -0.8341186992
 C         0.1161397315       -5.2309461507       -3.0495932839
 C        -0.9305944549       -4.1017272276       -2.7667018399
 C        -2.0060099687       -3.8919870167       -3.8464823622
 C        -1.4035417486       -3.2752516039       -5.1209325242
 C        -1.7442703971       -1.7205106661       -5.5015225742
 C        -2.6497282466       -5.2248592918       -4.2313617759
 C        -3.0897755532       -2.9289777446       -3.2145033767
 O        -1.0338541944       -3.6191171834       -1.6325906729
 O        -0.6366276829       -3.8756767706       -5.8667121334
 C        -0.9577802101       -1.2175726606       -6.6590585691
 C        -0.5397245094        0.3969896577       -6.5126884680
 C         0.8841575667        0.9287079302       -7.0679763832
 C         0.9886751411        2.4771824656       -6.8735714724
 C         0.2126995752        3.4906273921       -7.7799569540
 O        -1.2788461734        1.1409841873       -5.9835954358
 O         1.8260508932        3.0237678259       -6.1314442076
 C         1.9681499707        0.1417358120       -6.0532836263
 C         1.1324705631        0.4368362725       -8.5277569717
 H        -0.0293766821        6.8571505823        1.4951217879
 H        -1.2452892576        7.2218400533        2.6351736178
 H         0.4521280325        7.2119805073        3.2220834368
 H        -2.9731257501        3.2734031729        6.1477062083
 H        -2.7698111902        5.0203184803        5.9540264906
 H         1.7488523459        4.2476144786        3.9722592690
 H         0.8392416161        2.7932740295        4.1756711227
 H         1.2292983952        3.6965773975        5.6818648216
 H        -1.1180629038        6.3994098019        5.6020973563
 H         0.0470494573        5.3151524239        6.4282763592
 H         0.4828738051        6.5587158523        5.1027779256
 H        -4.2428170057        3.1134357652        4.3084150802
 H        -5.1349237349        4.0702179996        5.3104015205
 H        -4.7925567277        6.7681733823        0.3529548957
 H        -3.5681732385        5.8824241211        1.1576158706
 H        -7.4800156233        4.6432256416        3.1272431736
 H        -7.6389485724        5.9475914286        4.0617365219
 H        -6.7513981225        4.4594728027        4.6789462636
 H        -5.4636053906        7.5187884358        4.2784549343
 H        -5.0051695283        7.9389880625        2.6805261108
 H        -6.7756337163        7.6337243632        2.9954231624
 H        -3.7883606374        5.3614416078       -1.2157391696
 H        -5.3514357947        4.6905544430       -0.9543414483
 H        -4.7710814468       -0.2319982091        0.3604900957
 H        -4.0799266747       -0.7898961686       -1.2358068653
 H        -5.9199071522        2.1265811265        0.7362678101
 H        -6.1853950609        1.1512540200       -0.5439758783
 H        -6.3538090233        2.8272120156       -0.7880743141
 H        -4.9959617335        3.0142194652       -2.7333542947
 H        -3.2283144358        2.8129939315       -2.5321357932
 H        -4.2080735751        1.4502685880       -2.8330410151
 H        -3.3241549653       -2.3076425334        0.4916712892
 H        -2.1554655433       -1.7619886851       -0.3915668305
 H         1.3066313545       -2.2633382906        0.4030185066
 H         1.4609291636       -0.6816649474       -0.4316409104
 H        -1.6690493718       -2.0998944923        3.6391955470
 H        -0.8429955900       -0.5040192440        4.0070045703
 H         0.1622282301       -1.9247511047        3.8684907465
 H         0.2415524937       -3.3584631649        2.1496499419
 H        -1.5676551873       -3.4289509243        2.0104538300
 H        -0.5286135402       -3.3387581884        0.6335605626
 H         2.8852885552       -0.1014547936        1.7092933336
 H         3.5928818710       -1.2854618500        0.5981631965
 H         6.0364601294       -5.1183150109        2.4955138528
 H         4.1977444376       -4.8780989259        2.4756037114
 H         5.8990858484       -1.0833914183        4.3137949618
 H         4.5158262206       -0.2491224667        3.7850337629
 H         5.8308003346       -0.5684540438        2.6148165353
 H         3.8598814053       -4.0521771254        4.1670492178
 H         5.3293754536       -3.1116201900        4.8744267688
 H         3.6149359359       -2.5242790508        5.0825045921
 H         5.5665855867       -4.5409405155       -0.1557082609
 H         5.7279818058       -6.1610722539        0.3590513771
 H         0.7419137397       -6.1316743105       -1.2136689195
 H         0.9358018856       -4.4433670226       -1.3055230970
 H         5.4027884516       -5.7226277976       -2.1701117947
 H         4.6311199328       -6.9975249765       -3.0588962127
 H         5.4150415088       -7.4300537327       -1.6217177273
 H         3.5013003758       -8.2979101614       -0.2760158764
 H         2.0634067097       -7.4991913031       -0.1151927330
 H         2.5404261320       -8.3073819231       -1.6556738431
 H        -0.5092139274       -6.0604187135       -3.2590210152
 H         0.5844050181       -4.9762133078       -4.0386294879
 H        -2.8373917245       -1.7543717404       -5.7507399637
 H        -1.5297168246       -1.1331138342       -4.6420139418
 H        -1.9454420465       -6.0266258273       -4.5719885384
 H        -3.3710634106       -5.0652019796       -5.0358993844
 H        -3.3206703263       -5.6059196594       -3.3999290541
 H        -3.6885817234       -3.4930022243       -2.5291021367
 H        -2.6211078920       -2.2032616592       -2.6151578609
 H        -3.5867192267       -2.4186673909       -3.9648180989
 H         0.0100756147       -1.7357755473       -6.6539657247
 H        -1.4455342454       -1.4803758947       -7.5990599419
 H         0.5614925581        4.5135514990       -7.5142963127
 H         0.3418774093        3.3475547267       -8.8726295787
 H        -0.8524658072        3.4504230943       -7.6054024716
 H         1.6203703158       -0.8145313576       -5.9577067729
 H         2.0393963100        0.5748480135       -4.9944930954
 H         2.8072092593        0.1185343062       -6.6682959710
 H         1.1629431620       -0.6545372050       -8.5016286660
 H         0.3479091921        0.8449515125       -9.1617611793
 H         2.0721306351        0.7947562984       -8.8973423852
 Na       -1.3912710302        2.2247086641        1.9291583703
