155

 C        -0.2607974312        6.1854180969        2.4269673931
 C        -0.4094048604        4.7776762896        2.9045676270
 C        -0.5877973610        4.4206747774        4.4324177836
 C        -2.0410501813        3.9169546904        4.5847088796
 C        -3.0538278712        4.5214093065        5.6638623417
 C         0.3542394763        3.2313737766        4.8085843037
 C        -0.1968606414        5.5640116904        5.3764606390
 O        -0.2574049191        3.8930071673        2.0489705092
 O        -2.4542717873        2.9791319340        3.9176929701
 C        -4.5059706139        4.6173138786        5.0827536786
 C        -4.4961922011        5.5085549946        3.7841353184
 C        -5.9033048661        5.8778588193        3.1022018317
 C        -5.8702517479        5.2891781656        1.6330043422
 C        -4.7576515093        5.7631934143        0.7981251361
 O        -3.5004041161        6.0829753670        3.3255726580
 O        -6.7724932637        4.5740354228        1.2348521693
 C        -7.1566676932        5.3831974873        3.8562104643
 C        -5.9242187383        7.4728536303        3.1662033968
 C        -4.6333335159        4.8106812913       -0.4635178521
 C        -4.0141294596        3.4444936898       -0.1553455311
 C        -4.2659899609        2.3460395396       -1.2053812180
 C        -3.2888236333        1.1896906897       -0.8084589998
 C        -3.8278980572       -0.2207151187       -0.5960600826
 C        -5.7769306345        2.0285762822       -1.1984510329
 C        -3.8473149889        2.7957341183       -2.6574709470
 O        -3.4160056928        3.2147110867        0.8761268805
 O        -2.0755400419        1.4326716442       -0.7943383299
 C        -2.7292886563       -1.2583097706       -0.0825411762
 C        -2.2476671502       -0.9835407234        1.3947444311
 C        -0.8821520811       -1.5538465867        1.8828507979
 C         0.2070903563       -0.6745620993        1.1605070644
 C         1.3951110695       -1.5194864199        0.6102519251
 O        -2.9325305395       -0.3006409910        2.1253990633
 O         0.2972390953        0.5363660091        1.3239812008
 C        -0.8516329044       -1.2214229125        3.4326129598
 C        -0.9649973332       -3.0645094709        1.5815731107
 C         2.7583822994       -1.1946686278        1.3623353760
 C         2.8941580214       -2.0819299347        2.5520692474
 C         4.2796331941       -2.3041863940        3.2552734016
 C         5.0333172496       -3.3818896231        2.3685073527
 C         4.7565188886       -4.8523104219        2.6643464831
 C         5.1495426211       -0.9718587759        2.9791445057
 C         4.1074336763       -2.6528203444        4.7399533028
 O         1.8902393502       -2.5335356230        2.9941148818
 O         5.8463704214       -3.0142048129        1.6067986853
 C         5.0359891038       -5.8426785488        1.3505949245
 C         3.7664780295       -5.8273575278        0.4715463188
 C         3.9132415843       -6.1707516440       -1.0036037958
 C         3.0120047233       -5.2606111906       -2.0349145718
 C         1.4787523560       -4.9586050401       -1.7400315422
 O         2.6545255681       -5.5943786760        0.9012274221
 O         3.4780942107       -4.9421537432       -3.0804413048
 C         5.3515418766       -6.2477898933       -1.6135636681
 C         3.2021282009       -7.4955637497       -1.1971948649
 C         0.5956964858       -5.2705884407       -2.9981980251
 C        -0.5188877893       -4.2846919644       -3.1003482337
 C        -1.3952848864       -4.3889157301       -4.4109560524
 C        -0.4511095355       -3.4781385298       -5.4447924084
 C        -0.4939536807       -1.8887986264       -5.3197225182
 C        -1.5403366581       -5.7519896773       -4.9535384958
 C        -2.7959498219       -3.7117258987       -4.2068340245
 O        -0.7340167182       -3.3937239574       -2.2574475980
 O         0.4588148456       -4.0336013279       -6.0394068685
 C         0.5383490634       -1.0029895600       -5.9746434240
 C         0.1390596438        0.5007971974       -5.8234798384
 C         0.9620385542        1.5310056443       -6.5854405044
 C         0.1853264338        2.8856948689       -6.5263479497
 C        -1.1975558772        3.0242021922       -7.1056761738
 O        -0.7257648202        0.7355083524       -5.0677678043
 O         0.7274936299        3.8359692387       -6.0334680341
 C         2.3411202753        1.7740195633       -5.9284514709
 C         1.0344005499        1.1536260446       -8.1862453044
 H         0.7947879980        6.3050894692        2.2269126333
 H        -0.8095575145        6.1650658186        1.4682319052
 H        -0.5841324193        6.9143161468        3.1143685331
 H        -2.8785516741        3.9513539982        6.6392194632
 H        -2.8655464890        5.5582282994        5.9400302377
 H         1.3162555993        3.7032704969        5.1907281585
 H         0.4329186107        2.4413423728        4.0308381056
 H        -0.0097299431        2.6861924403        5.6995156010
 H        -0.8609732176        6.4279383460        5.2276208572
 H        -0.4401236793        5.1973661329        6.3738575463
 H         0.8694986433        5.8858974532        5.2357678635
 H        -4.7996616214        3.5872250941        4.7214853269
 H        -5.1368418207        5.0908248738        5.8018155660
 H        -4.9163958913        6.7584440999        0.4475142724
 H        -3.8316970066        5.7417579267        1.3540064411
 H        -8.0273132458        5.4389599478        3.1452975574
 H        -7.2504902876        5.7553027836        4.8605451595
 H        -7.1064835790        4.2786941266        4.0007769405
 H        -5.5767983659        7.8538836589        4.0546715290
 H        -5.2020344610        7.7124692922        2.3454821197
 H        -6.8604036068        8.0677068257        3.0352109100
 H        -4.0518700997        5.3188584536       -1.2093324192
 H        -5.6388152187        4.7069641114       -0.8631294072
 H        -4.6983886882       -0.1558241143        0.0522863298
 H        -4.2574825984       -0.5290949871       -1.6363697653
 H        -6.1351142902        1.8753645847       -0.2249702603
 H        -5.9444761941        1.1733463821       -1.7665349187
 H        -6.3052795795        2.8606800633       -1.6282530645
 H        -4.4117362817        3.7605259799       -2.9480735770
 H        -2.7558887233        2.9729743676       -2.6955219787
 H        -4.0580738000        1.9943516967       -3.3789879694
 H        -3.3329071472       -2.1909420890       -0.0500164853
 H        -1.9318842973       -1.3373671503       -0.8229967395
 H         1.3477888825       -2.6145599822        0.5245376429
 H         1.5202942388       -1.1636004886       -0.4422122338
 H        -1.7540621323       -1.5448245969        4.0484427211
 H        -0.8911703111       -0.1102228086        3.6257142990
 H         0.1177352726       -1.7070914561        3.7844428084
 H        -0.2025286554       -3.7345412168        2.0162092278
 H        -1.8039075435       -3.5608466005        2.0314252610
 H        -0.9693517275       -3.3155448031        0.5545571109
 H         2.7564061628       -0.1362194054        1.6371339217
 H         3.6113526927       -1.1662115247        0.7360890805
 H         5.3454537356       -5.3073650023        3.4989433955
 H         3.7252408619       -5.0325576012        2.9397408749
 H         6.1627665002       -1.1112970218        3.1657879314
 H         4.8409578584       -0.0226926939        3.5770706552
 H         5.1837885775       -0.7597052904        1.9049273265
 H         3.5361073902       -3.5906070826        4.7614638492
 H         5.1268083494       -2.9168589181        5.1090124503
 H         3.7785238916       -1.8054080764        5.3879854549
 H         5.8786314788       -5.5353309072        0.6836509124
 H         5.1924720338       -6.8420702283        1.6719388395
 H         1.0692551652       -5.4187235855       -0.8387449140
 H         1.4846912839       -3.8599590891       -1.5600726863
 H         5.9462823975       -5.3520644599       -1.4947258069
 H         5.2836184391       -6.5348317769       -2.6607035865
 H         5.8968370588       -7.0072379927       -1.0788233375
 H         3.7372277598       -8.4206158894       -0.9459133042
 H         2.2827634594       -7.5369650231       -0.6207009341
 H         2.8302875503       -7.6340520137       -2.1717151429
 H         0.1816436802       -6.2977644684       -2.8866095868
 H         1.1886135484       -5.2127003341       -3.9067462873
 H        -1.4551302993       -1.4291564666       -5.5467369913
 H        -0.4320142357       -1.7750937711       -4.1869942269
 H        -0.5940839861       -6.1025747470       -5.3900915219
 H        -2.2653326810       -5.7725128563       -5.7366937762
 H        -1.7003996008       -6.6541559695       -4.2388718544
 H        -3.4651135658       -4.4758330778       -4.5993618760
 H        -3.0854430083       -3.3571282802       -3.2517553663
 H        -2.9777120612       -2.9815927603       -4.8861020436
 H         1.5744811644       -1.1439034757       -5.7230046120
 H         0.5590127726       -1.1558200866       -7.0599864008
 H        -1.7485749980        3.5769760037       -6.3446580591
 H        -1.1710721033        3.6926286038       -7.9755434838
 H        -1.7558252486        2.1849413898       -7.3905638494
 H         2.7641726682        0.8422630272       -5.7775154509
 H         2.0939996506        2.4387322615       -5.0263459805
 H         2.9174765584        2.4006721991       -6.5312738521
 H         1.6663127779        0.3415020061       -8.4260687739
 H        -0.0302211842        0.9034193820       -8.4905481654
 H         1.4428799271        1.9955057551       -8.7767335371
 Na       -1.5166195947        2.0010596182        1.9016868324
