155

 C        -0.3453889964        6.0410509787        2.5185719773
 C        -0.3445853334        4.5854229144        2.8423727073
 C        -0.5238138160        4.2386402262        4.2980586247
 C        -2.0923001932        3.8429333703        4.4391500768
 C        -3.0530851078        4.4441164779        5.4535309865
 C         0.2401643453        2.9051275739        4.8067177700
 C        -0.2105482168        5.4870610161        5.1974537895
 O        -0.3719624839        3.7667760586        1.9597546548
 O        -2.4341333760        2.8776199928        3.7712199386
 C        -4.5324187568        4.5209158519        5.0184764958
 C        -4.5979320695        5.6989393938        3.9719913731
 C        -5.8998246486        6.0325041395        3.1777411545
 C        -5.9070032796        5.2841003319        1.8025297366
 C        -4.8467694056        5.7453340469        0.7026992568
 O        -3.6064714955        6.2245073397        3.5294365321
 O        -6.8574762458        4.5814060248        1.4324552317
 C        -7.1579153456        5.5172424244        3.9733457005
 C        -6.0003176264        7.6165616290        2.8553431132
 C        -4.7591045478        4.8403465948       -0.5679154955
 C        -4.0921167276        3.5202518789       -0.2484852852
 C        -4.1520544422        2.3155024530       -1.3573918818
 C        -3.2584643954        1.1266997486       -0.8427111873
 C        -3.7394326031       -0.3197905543       -0.7950402684
 C        -5.6151454417        1.9012709912       -1.5329849388
 C        -3.5713173487        2.8525195057       -2.6797363666
 O        -3.4720047019        3.4148039167        0.7887633380
 O        -2.2121170867        1.3519099929       -0.3120752168
 C        -2.7334479645       -1.2010962387       -0.1145456015
 C        -2.4347669045       -0.7696771066        1.2911008510
 C        -1.0613850791       -1.4882889456        1.9024396855
 C         0.2178363595       -0.7674975995        1.2656022524
 C         1.4039595221       -1.3594403852        0.5202842647
 O        -3.1633795386       -0.0572967750        1.9813367816
 O         0.3154780940        0.4275286776        1.5169363030
 C        -0.9388186486       -1.2289841503        3.5475791966
 C        -0.9858797897       -2.9546391969        1.5909101932
 C         2.7232424011       -1.3230833089        1.3125708200
 C         2.9535310029       -1.9917078236        2.6017179121
 C         4.3962630660       -2.1632319989        3.1923583949
 C         4.9721582319       -3.4061487281        2.3427096223
 C         4.6307436919       -4.8149932182        2.6493179858
 C         5.0905659350       -0.8372604853        3.1494464358
 C         4.2269449218       -2.7382040802        4.6485681688
 O         1.9818872235       -2.5795177367        3.1328789239
 O         5.7506709220       -3.2419639969        1.3808881518
 C         4.9282935531       -5.7489416280        1.5040425678
 C         3.7022057741       -5.7755667704        0.4840828721
 C         3.8876964894       -6.2625287479       -0.9782355565
 C         3.0771507030       -5.3167654300       -1.9856674181
 C         1.6092552709       -5.0353236194       -1.7300761432
 O         2.5897312726       -5.4842865976        0.9021757960
 O         3.6739359665       -4.6887679729       -2.8239600496
 C         5.4333586931       -6.2635309959       -1.4026558284
 C         3.3506088188       -7.7133051431       -0.9806149017
 C         0.7882708727       -5.3044107909       -2.9376758660
 C        -0.4190287608       -4.3147788096       -3.1488011200
 C        -1.0844968802       -4.4312933690       -4.5232102838
 C        -0.1661456832       -3.4100008361       -5.4570251119
 C        -0.3464542655       -1.9513008993       -5.0464308804
 C        -1.1927401612       -5.7610800417       -5.2407782961
 C        -2.5424795617       -3.7497914726       -4.5212311211
 O        -0.6554556301       -3.3691121285       -2.4189823812
 O         0.5287029296       -3.8469276556       -6.3519972294
 C         0.5101270164       -0.9784839212       -5.9578472620
 C         0.1279462332        0.4733362650       -5.6634465409
 C         0.7887219202        1.6012931481       -6.4653087914
 C         0.0734738187        2.9784775932       -6.4737611356
 C        -1.3233631794        3.0629540455       -6.9809655266
 O        -0.7707440216        0.7203450587       -4.7952518155
 O         0.5645487514        4.0965280858       -6.1852286704
 C         2.2620488479        1.8071618127       -5.8739794328
 C         1.0450388581        1.1457154302       -7.9663591840
 H         0.3558076030        6.5201647250        3.1558886612
 H        -0.1527165351        6.1323847895        1.5111688913
 H        -1.3241464565        6.4409639473        2.8147582482
 H        -2.9700891468        3.8871822999        6.3618440937
 H        -2.6466631128        5.4688320560        5.7731689655
 H         1.2609801652        2.9756875947        4.8649341866
 H        -0.1492449205        2.0304533480        4.3087044079
 H        -0.0923366424        2.7356560123        5.8208683330
 H        -0.8454275644        6.3622879974        5.0273166975
 H        -0.2593001658        5.1553320638        6.2187953854
 H         0.7469952023        5.8455813053        4.9452596865
 H        -4.6924324269        3.5713789574        4.5980088315
 H        -5.0863393793        4.8254736726        5.9372610257
 H        -5.1451186111        6.7578899591        0.2998025060
 H        -3.8555305177        5.8570621720        1.1796624377
 H        -7.8113293297        6.3511120049        3.9614897388
 H        -6.8477068382        5.3661707198        5.0443725946
 H        -7.7790074156        4.6853155396        3.6798576930
 H        -6.8019305150        8.0772053385        3.5447481449
 H        -5.0908710259        8.2066055319        2.7564310507
 H        -6.5692294501        7.7755345328        1.9480712367
 H        -4.1464643995        5.2932810981       -1.3863429925
 H        -5.7976851595        4.8124399199       -0.9233434020
 H        -4.7099619360       -0.2454845524       -0.2397253418
 H        -3.9945080216       -0.7168007278       -1.7232610210
 H        -6.0628545004        1.5965643184       -0.5385967295
 H        -5.6612524532        1.0024257738       -2.2205535328
 H        -6.0994017771        2.7761552222       -1.9721061485
 H        -4.2566823336        3.5486692411       -3.0789767313
 H        -2.5941391044        3.2200693253       -2.5721300981
 H        -3.4725958494        2.0017996393       -3.3884116874
 H        -3.1866822840       -2.1825833925       -0.1304349710
 H        -1.8176385388       -1.0576241507       -0.7139402526
 H         1.2309682820       -2.4231390191        0.2784485549
 H         1.6380092395       -0.8578320578       -0.4241891319
 H        -1.7666908113       -1.6424083364        4.0217725220
 H        -1.2525116219       -0.2608255083        3.8267532284
 H        -0.0440619289       -1.5661731814        3.9140562234
 H        -0.1154495007       -3.4212567209        2.0082823654
 H        -1.6567730981       -3.6485779216        2.1197545527
 H        -1.0498256005       -3.3210814466        0.5340512899
 H         2.9790869165       -0.2385298362        1.4768509933
 H         3.5960383083       -1.4625306855        0.5826075861
 H         5.1733439904       -5.1780740899        3.4932099491
 H         3.5701997478       -5.0313493819        2.9228569306
 H         6.0275916974       -0.9420611441        3.8145054649
 H         4.5539626108       -0.0705841546        3.6340178944
 H         5.4809569066       -0.5268965612        2.1904439005
 H         3.6396503787       -3.6476661478        4.6585322931
 H         5.2033259318       -2.8456358648        5.1089129633
 H         3.8067512988       -1.9867499193        5.2604218764
 H         5.7638613411       -5.3947315906        0.9138198622
 H         5.1572464787       -6.8106754480        1.9152410489
 H         1.2938335470       -5.6411172135       -0.8722295439
 H         1.3712008488       -4.0101220329       -1.4731616492
 H         5.9473026667       -5.3673753198       -0.9526635315
 H         5.4436589628       -6.1324750793       -2.4808868004
 H         6.0304396732       -7.1533401927       -1.1519974011
 H         4.0319810469       -8.4358410248       -0.5561084398
 H         2.4392275985       -7.9124452136       -0.3990899654
 H         3.1540291121       -8.1252408157       -2.0093777439
 H         0.4614718389       -6.3279662132       -2.8728468301
 H         1.3989277540       -5.1979373685       -3.8447109680
 H        -1.4413768082       -1.7063757730       -4.9877560196
 H        -0.0495257943       -1.8086416094       -4.0249935248
 H        -0.4971136818       -6.5214446707       -4.9537326491
 H        -1.1503851619       -5.6146036499       -6.3445331356
 H        -2.0533720736       -6.3013875979       -5.0333134599
 H        -3.3128749825       -4.2842351840       -3.9679188292
 H        -2.4251643166       -2.7190054626       -4.1243505752
 H        -2.8494340639       -3.5391870934       -5.6031632026
 H         1.5655200544       -1.1104065834       -5.5248562202
 H         0.5811160054       -1.0923000585       -7.0544755638
 H        -2.0220804588        3.6977895992       -6.4184734064
 H        -1.3104010117        3.3288736549       -8.0592842199
 H        -1.8157786035        2.0389487333       -7.0517711343
 H         2.8818543192        0.8808158005       -6.1763751100
 H         2.0911668142        1.9189986383       -4.8326373697
 H         2.6800610009        2.8042470649       -6.1949105322
 H         1.8694523149        0.4193026381       -8.0405571433
 H         0.1900967628        0.7910194949       -8.4294778912
 H         1.4287375504        1.9310207526       -8.5689339862
 Na       -1.6807016099        1.7233510618        1.8892611033
