155

 C        -0.4792427376        6.0370865552        2.5893460040
 C        -0.6711757417        4.5333756917        2.7562697460
 C        -0.8078836180        3.8533306929        4.1944831332
 C        -2.4014296349        3.4792928311        4.3488351847
 C        -3.2601801502        4.4636038463        5.2075473004
 C        -0.0907640279        2.4068312779        4.3738721771
 C        -0.1551378054        4.7906497760        5.2937883573
 O        -0.5450327142        3.8192214304        1.7781360469
 O        -2.9116444857        2.6058517430        3.7264459173
 C        -4.6338742218        4.8054863542        4.6720861244
 C        -4.6332361017        5.9687044919        3.8456152647
 C        -6.0195343585        6.3322557861        3.0501432423
 C        -6.0570404460        5.1862877816        1.9308388873
 C        -5.2910556584        5.5044956380        0.5110446611
 O        -3.6754911825        6.6469378067        3.5124684786
 O        -6.5337407783        4.0885043995        2.1545661257
 C        -7.2674849397        6.2404676360        3.9767799617
 C        -5.9242198174        7.7515367421        2.4156542167
 C        -5.1885348353        4.3178224878       -0.4205060790
 C        -4.0426392976        3.2828084831       -0.1408141802
 C        -3.6879504522        2.3792593452       -1.3766360523
 C        -2.8394427574        1.1759260939       -0.9488291957
 C        -3.4610410428       -0.2330614716       -1.0307659221
 C        -5.0159841044        1.9663049411       -2.1937612634
 C        -2.8047469704        3.2438647599       -2.3379150971
 O        -3.3772175566        3.3274912928        0.8754481841
 O        -1.6577834563        1.3886788865       -0.7044010420
 C        -2.7148499383       -1.3487111799       -0.3622019562
 C        -2.4056274285       -1.0651180178        1.1323367455
 C        -1.2854337545       -1.7167394247        1.9308292944
 C        -0.0665112903       -0.8760662401        1.6320500223
 C         1.1184904815       -1.4159369600        0.8083519410
 O        -3.0982046469       -0.2648421300        1.7451095933
 O        -0.0824802417        0.3177499685        1.9704627009
 C        -1.5176526451       -1.6022579809        3.4785546481
 C        -1.2707811367       -3.2732392328        1.6295736654
 C         2.4078730955       -1.1189807469        1.5311368929
 C         2.6423148410       -1.7736900921        2.8317178635
 C         4.1146518049       -2.0604171633        3.2037993085
 C         4.5548781089       -3.3535342674        2.3437472512
 C         4.6300374777       -4.7189043232        2.9774946686
 C         5.2379060784       -1.0763523866        2.8572433800
 C         4.2157332671       -2.2825764841        4.7071450620
 O         1.7029593162       -2.3231508732        3.4024330578
 O         4.9770675641       -3.1465836728        1.1751609033
 C         4.9247542020       -5.8548366496        1.9340514078
 C         3.8269423320       -5.7232702253        0.9020491153
 C         4.0927168585       -6.2402686107       -0.6517636466
 C         3.3557007167       -5.3229102989       -1.6264215627
 C         1.8373589347       -5.4082294749       -1.8600917266
 O         2.7309469723       -5.2656655404        1.1806358147
 O         4.0377878818       -4.4904445372       -2.2744505861
 C         5.6254952275       -6.3285830409       -1.0583323523
 C         3.4858001898       -7.6730274637       -0.5376460084
 C         1.3699727727       -5.3667100818       -3.3242103933
 C         0.0074934565       -4.5830996791       -3.4659121695
 C        -0.5039984213       -4.4859491152       -5.0951636283
 C         0.0390434155       -3.1652600357       -5.8258461063
 C         0.2063919317       -1.8289347187       -5.0054703675
 C        -0.0257215367       -5.6557727755       -5.8924859531
 C        -2.0594871235       -4.3271355947       -4.9406939638
 O        -0.6958361566       -4.1945942549       -2.5416320622
 O         0.3172055318       -3.1650006915       -6.9807774149
 C         0.7640914574       -0.6006843090       -5.7801202617
 C         0.1456505865        0.7530279031       -5.4501340917
 C         0.7744477009        1.9961226120       -6.2832405983
 C        -0.2724958218        3.1457421439       -6.4100155476
 C        -1.6787080652        2.8312922754       -6.6616809110
 O        -0.6986045317        0.9434716435       -4.5921927939
 O         0.0613246879        4.2674885325       -6.0355707108
 C         2.0590212473        2.5114275515       -5.4613388897
 C         0.9931357311        1.5540784251       -7.6893057860
 H         0.6288912476        6.3025778512        2.6383293386
 H        -0.7722473750        6.3029895111        1.5713901046
 H        -1.1049262878        6.6303479643        3.3560785465
 H        -3.1988895704        4.1247611389        6.2546523849
 H        -2.7469669417        5.3813172315        5.2713379094
 H         0.9257743381        2.5119161681        4.7298845525
 H         0.0126258174        1.7206779171        3.5917669560
 H        -0.6429014056        1.9948012743        5.1648495931
 H        -0.5402273382        5.7522967378        5.3743302555
 H        -0.3641590209        4.3137376258        6.2544658413
 H         0.9359931278        4.7831633756        5.2686057752
 H        -4.9370810593        3.9631368416        3.9708928145
 H        -5.2696686462        5.0290964189        5.5166729793
 H        -5.7145333617        6.3520793260       -0.0655295058
 H        -4.2703393390        5.9228575449        0.8314501387
 H        -8.0851638728        5.7631635966        3.4521222511
 H        -7.7198782932        7.1479571432        4.1077066541
 H        -7.0455123759        5.7025349727        4.9011541421
 H        -5.2488693212        8.3865203953        3.0153236468
 H        -5.4282114384        7.7686167508        1.5379941603
 H        -6.8789255905        8.1875878361        2.1988123278
 H        -5.1583025555        4.6889336993       -1.4529471765
 H        -6.1586545671        3.7590691083       -0.3609429772
 H        -4.4572081843       -0.1910104960       -0.7206094689
 H        -3.5465668028       -0.4772330790       -2.1126267822
 H        -5.6798711368        1.4346340130       -1.4729885962
 H        -4.6820412557        1.3675652100       -3.0788815217
 H        -5.4806424708        2.9232017416       -2.5815978317
 H        -3.3032823329        4.1811700092       -2.4999220715
 H        -1.8197394377        3.3843955752       -1.7991041174
 H        -2.7225641130        2.6805946238       -3.2325985963
 H        -3.4340281788       -2.2011425612       -0.3587351742
 H        -1.8304857453       -1.4725186171       -0.9807663758
 H         1.0590402566       -2.5071485234        0.6988321467
 H         1.0148324696       -0.8745736326       -0.0884951585
 H        -2.2279104549       -2.3957024439        3.7238838910
 H        -1.7103416406       -0.6242646440        3.8824848150
 H        -0.5476547485       -1.8911126161        3.8361626423
 H        -0.6978771321       -3.9254514135        2.2380750336
 H        -2.2567298495       -3.7723993726        1.6738011393
 H        -0.9221703172       -3.5998937888        0.6412733338
 H         2.7280390998       -0.0979649714        1.4761609845
 H         3.1885283572       -1.6324067565        0.9858045844
 H         5.3784671296       -4.7789775774        3.8313771939
 H         3.7512525658       -5.0361588300        3.5220624733
 H         6.1721426956       -1.5424663958        3.2316798909
 H         5.0942772931       -0.1364186882        3.2005153834
 H         5.3966509798       -0.9989625440        1.7818681825
 H         3.6275186181       -3.1427455842        4.9574742354
 H         5.2042205101       -2.5739375227        4.8594138299
 H         3.7861653088       -1.5387925265        5.4406463455
 H         5.8780511948       -5.7988952478        1.3849521634
 H         4.8687476314       -6.7893044432        2.4123603258
 H         1.4555182763       -6.2736280259       -1.3780423278
 H         1.4326342239       -4.5161018118       -1.3436555340
 H         6.1781688145       -5.5118151783       -0.7317716557
 H         5.6857091338       -6.3285166082       -2.1723305730
 H         5.9695656929       -7.3298719550       -0.6763002745
 H         4.2497137499       -8.4396286954       -0.2595461430
 H         2.7034826619       -7.7436285956        0.2471999194
 H         3.0655573619       -8.0536850066       -1.4887965799
 H         1.2033354540       -6.4145495619       -3.6302958182
 H         2.1718632454       -5.0486947017       -4.0060495656
 H        -0.7609782371       -1.6854708390       -4.6074004427
 H         0.8076573894       -1.9743373804       -4.1002888795
 H         0.8966473741       -5.4161834279       -6.4263477073
 H        -0.7311771776       -5.9088234339       -6.6776380837
 H         0.0253079176       -6.5534747385       -5.3959911022
 H        -2.5815517022       -5.2410634968       -5.2290968074
 H        -2.4308540500       -4.2215426815       -3.8889876808
 H        -2.3781430229       -3.4423697880       -5.5914552510
 H         1.8395090393       -0.6247722515       -5.7680243560
 H         0.3038215085       -0.7647517763       -6.7894770819
 H        -2.3214971100        3.5717979250       -7.1949875720
 H        -1.7870098999        1.7876238947       -6.9909384320
 H        -2.1688415836        2.7528661379       -5.6684558337
 H         2.7398133621        1.6983791170       -5.1917415304
 H         1.7434214457        2.8668784548       -4.5636311767
 H         2.5494069707        3.2003429117       -6.1981371629
 H         1.7073707331        0.7207659148       -7.7486423878
 H         0.1450966930        1.1371933498       -8.2255191145
 H         1.2845539923        2.3603979804       -8.3214522263
 Na       -1.7432955774        1.7176103653        1.5962754543
