155

 C        -0.3479882426        5.1693059322        2.9344872487
 C        -1.1275164961        3.8377693002        2.9589471909
 C        -1.6193200054        3.2331539409        4.3496172617
 C        -3.1287039017        2.8337951634        4.2509763725
 C        -4.0952546756        3.7319009325        5.0805141097
 C        -0.8281320539        1.7561757858        4.4199820122
 C        -1.1535851751        3.9902467745        5.5888025719
 O        -1.5066382534        3.3219895698        1.9335571034
 O        -3.4146719474        1.8197826187        3.6510301492
 C        -5.1522991409        4.3481895110        4.2068796892
 C        -4.5737300821        5.3388298954        3.0455935726
 C        -5.6643619041        5.9750604020        2.1174033491
 C        -6.3985013239        4.9310608758        1.2307709929
 C        -5.9143695737        4.5678494223       -0.1312137630
 O        -3.3921969459        5.5970918140        2.9584330231
 O        -7.3075016549        4.3024608999        1.7157239556
 C        -6.7879996222        6.6702800768        3.0316049174
 C        -4.9100031822        7.0649608304        1.2644753946
 C        -5.9290799213        3.0708264177       -0.5237324864
 C        -4.5303526136        2.4795112375       -0.4490320684
 C        -3.5558642396        2.5011437969       -1.5473030297
 C        -2.6096560654        1.2843256618       -1.3643564472
 C        -2.9832047019        0.0541039303       -2.1299229502
 C        -4.0860753990        2.6331802159       -2.9793322645
 C        -2.6216235336        3.7788343110       -1.3124498801
 O        -4.3209107682        1.9193302847        0.6084915060
 O        -1.6124856894        1.4259751577       -0.6942731438
 C        -2.2058608757       -1.1358297881       -1.5005787291
 C        -2.7366013078       -1.4636208297       -0.0665052671
 C        -1.8818505584       -2.3097461555        1.1109265399
 C        -0.5393742949       -1.5176854996        1.1975673068
 C         0.8562156821       -2.3499083248        0.8617777805
 O        -3.8630028972       -1.1168073659        0.2943104234
 O        -0.5441463820       -0.3128116002        1.3858846933
 C        -2.6383751003       -2.3293920755        2.4896457771
 C        -1.8623332872       -3.7384534185        0.5799489644
 C         2.1345057862       -1.5500833238        1.6001056797
 C         2.1689512008       -1.9354316880        3.1101603988
 C         3.4853253296       -1.4473688662        3.7927163997
 C         4.5496251383       -2.2884068296        3.0372759037
 C         4.6407075804       -3.8027007779        3.1580889505
 C         3.5256586492        0.0668173058        3.5953773446
 C         3.6288026576       -1.9957189175        5.2862448029
 O         1.3364122119       -2.6649853529        3.6369268484
 O         5.4478237645       -1.7337006319        2.4341669609
 C         5.0627973208       -4.5581197156        1.8701678830
 C         3.9208259089       -5.4366136985        1.2865499733
 C         4.0637158092       -6.6486197594        0.3495877907
 C         4.0178767568       -6.0159427654       -1.1204911391
 C         2.7681573169       -5.2112526342       -1.5668743491
 O         2.7896204685       -5.0644510742        1.5910578644
 O         5.0332912641       -6.0301735771       -1.8219230008
 C         5.4273151538       -7.3515263189        0.5703690190
 C         2.8559734129       -7.6937285029        0.5288645363
 C         3.1635111729       -4.1066737856       -2.6133128570
 C         1.9045117766       -3.5726876687       -3.3863509850
 C         1.7383753522       -3.5094702639       -4.9420315909
 C         1.9658958202       -2.0678495485       -5.4439148813
 C         0.7707088240       -1.1398863192       -5.1469504117
 C         2.6982800410       -4.4219290092       -5.6863320102
 C         0.2904138226       -4.0869632185       -5.2726056654
 O         0.9988482243       -3.0832182632       -2.7214398345
 O         2.8923683336       -1.6633429571       -6.0375677426
 C         0.9283213210        0.2363510277       -5.8971657226
 C        -0.1242514593        1.2828354799       -5.5717247366
 C         0.1559616391        2.7869723059       -5.4009509788
 C        -0.9267597390        3.7996621936       -5.9948838833
 C        -1.7504147518        3.3523580258       -7.2096980782
 O        -1.3003630193        0.9176940468       -5.3397078576
 O        -1.2222166752        4.9002392837       -5.5422635200
 C         0.3845937439        2.9548167644       -3.9151042806
 C         1.4353409253        3.1342336115       -6.1404036198
 H        -0.5478610744        5.6765295749        1.9834261991
 H        -0.6019156391        5.7918146936        3.7374196676
 H         0.7934024227        4.9198203016        2.9709519009
 H        -4.5511429103        2.9949959199        5.7793089093
 H        -3.5276077911        4.4659131197        5.7193562323
 H         0.1899466899        1.8125293704        4.6587248096
 H        -0.8979164619        1.2240210048        3.4915906720
 H        -1.3048390389        1.2493659547        5.2697078833
 H        -1.5189179913        5.0029039604        5.5337284153
 H        -1.4282613142        3.4057000193        6.4708903760
 H        -0.0794810131        3.9842550948        5.6145577179
 H        -5.7959085581        3.5321269173        3.7334590912
 H        -5.7104588712        4.9838215388        4.8624316363
 H        -6.5141508721        5.1125968753       -0.8567614966
 H        -4.9353335819        5.0161232192       -0.2673997186
 H        -7.4650757783        5.9406070056        3.2789179214
 H        -7.1414978030        7.5960329393        2.6110742851
 H        -6.4184582231        6.9705890628        4.0344292888
 H        -4.4081423068        7.6351198125        1.9853664991
 H        -4.1720362230        6.6839084026        0.5567299688
 H        -5.6947433739        7.6944983058        0.7930707179
 H        -6.2141231715        3.0680607402       -1.5819471804
 H        -6.7265236283        2.5383819710       -0.0012093503
 H        -4.0465068782       -0.1281373100       -2.2434147135
 H        -2.6738143394        0.2509954847       -3.2156074244
 H        -4.9770769360        2.0322025495       -3.2734183224
 H        -3.4627950140        2.2922748276       -3.8091509055
 H        -4.3709085555        3.6571117176       -3.1811927562
 H        -3.1020960963        4.5989599017       -1.9129069001
 H        -2.5144922791        4.1166969989       -0.1756744887
 H        -1.7371171564        3.5452998115       -1.8208246431
 H        -2.4669478940       -2.0063056158       -2.1120481543
 H        -1.1697127174       -0.7934073628       -1.5458178967
 H         0.6792049691       -3.3355623656        1.2705304902
 H         1.0946918816       -2.3816408907       -0.2172232628
 H        -3.4687625258       -3.0325220376        2.2902055185
 H        -2.8737650719       -1.2727131904        2.6587346950
 H        -2.0035445109       -2.9009972321        3.3045604587
 H        -1.1155019277       -4.2986476330        1.0845394713
 H        -2.8522294640       -4.1217127074        0.6825870032
 H        -1.7807257489       -3.7014690332       -0.4776496897
 H         2.0002673804       -0.4737505774        1.4518057681
 H         2.9549265032       -1.7916093863        0.9681683725
 H         5.2845901378       -4.1891411968        3.9421202568
 H         3.7595287119       -4.3149001326        3.3850814588
 H         4.0315013812        0.5823777469        4.3500049610
 H         2.4445837984        0.4237047692        3.7108835171
 H         3.9903226331        0.2900528196        2.6531484962
 H         3.0247309431       -2.9401283760        5.2529435579
 H         4.6743284572       -2.1383820617        5.6288292770
 H         3.1255636504       -1.3376193307        5.9597071094
 H         5.2346667720       -3.6459518966        1.1538893664
 H         6.0232721082       -5.0704602629        1.9634875847
 H         2.2648938147       -5.9818680775       -2.1657588504
 H         2.1345770930       -4.8350215336       -0.7393591124
 H         6.3718825301       -6.6682717582        0.5264033053
 H         5.6410208319       -8.0898731892       -0.1763804390
 H         5.5981820413       -7.9449757976        1.4653118001
 H         2.2954125578       -7.7780170190       -0.3822329003
 H         3.1913173242       -8.6951515011        0.7995865499
 H         2.1796721196       -7.3380842940        1.3108674932
 H         3.9660780348       -4.4545262949       -3.2526018854
 H         3.5120763117       -3.1625444585       -2.1356891796
 H        -0.2050051548       -1.5772045248       -5.3226712726
 H         0.8661110120       -0.9617849021       -4.0732901011
 H         2.3871977191       -5.3921077211       -5.7926192684
 H         3.6863254741       -4.1890490636       -5.4082987355
 H         2.5989101867       -4.0195702459       -6.7492343390
 H         0.1887924190       -4.3227541052       -6.3189277679
 H         0.1289199221       -4.9804715564       -4.6656797860
 H        -0.4916361664       -3.3740194591       -5.0494551787
 H         1.9189921991        0.6065836494       -5.5757481586
 H         0.9324589966       -0.0254181970       -6.9426123704
 H        -2.0873139844        4.1488643543       -7.8875050598
 H        -1.2287816650        2.5547899945       -7.7820840849
 H        -2.7315019105        3.0094436247       -6.7638072089
 H         1.2902080554        2.5565832838       -3.6303031995
 H        -0.4326149355        2.7124876466       -3.2352658853
 H         0.4650111108        3.9990992460       -3.7974941104
 H         2.2907028679        2.7521184349       -5.5128139369
 H         1.3986122356        2.5659063507       -7.0279661278
 H         1.5355792772        4.1872242378       -6.3659480323
 Na       -2.5112044719        0.9776884100        1.4930963075
