155

 C        -0.4824104736        4.5579784976        2.8869796840
 C        -0.9692971647        3.1235944517        2.9934386873
 C        -1.6696152863        2.6287833299        4.3401902564
 C        -3.2475698108        2.4453674114        4.0644871766
 C        -4.3351825092        3.1102687477        4.9681176214
 C        -0.9699505514        1.2361497559        4.6962671887
 C        -1.3962994590        3.5511708886        5.4977319090
 O        -1.0305991759        2.3832043930        2.0449344681
 O        -3.6645677399        1.8167576955        3.1061676868
 C        -5.5561855429        3.6353481894        4.1917215135
 C        -5.0565982823        4.6608278728        3.2310579271
 C        -6.1560530086        5.3569168442        2.2566745185
 C        -6.5281478482        4.2748675073        1.0909037794
 C        -6.3294001679        4.7666565658       -0.4488562279
 O        -3.9408373439        5.1071453356        3.2168683180
 O        -7.0519494970        3.2391395773        1.3706778483
 C        -7.4804574680        5.6177067818        3.0190050068
 C        -5.5248242070        6.6854596077        1.7529476182
 C        -6.0362048305        3.4882762304       -1.3383661792
 C        -4.6495178997        2.9408258890       -1.0317866844
 C        -3.7171736229        2.6038250267       -2.1525413270
 C        -3.0235525469        1.2749415343       -1.9539449305
 C        -3.6228207267        0.0310783628       -2.7064095525
 C        -4.4645784909        2.4896241144       -3.5866955353
 C        -2.6821232261        3.7979307957       -2.1997301244
 O        -4.2742155558        2.9270800799        0.1277476526
 O        -1.9168012218        1.2848721252       -1.4006850120
 C        -2.7979391983       -1.2115835737       -2.2037232926
 C        -2.9276120376       -1.4931643801       -0.7750478799
 C        -1.9456962543       -2.5522195923       -0.0291215068
 C        -0.8806459046       -1.7532083669        0.8064299783
 C         0.4844340291       -2.2933763715        0.8993706358
 O        -3.7073030264       -0.8156762290       -0.1251162299
 O        -1.2500959033       -0.7420532576        1.3964595195
 C        -2.7628843085       -3.3008599310        0.9891845538
 C        -1.2313567407       -3.4699438274       -1.0715607905
 C         1.5034450380       -1.4557992445        1.7818043312
 C         1.7501353939       -2.1013515908        3.1605930951
 C         3.1244564026       -1.7383247845        3.7465243663
 C         4.2918952998       -2.2547610514        2.8141686241
 C         5.3551012652       -3.2943411018        3.1991803570
 C         3.2773687074       -0.2297100104        3.8638572168
 C         3.3343403506       -2.3832702184        5.2002326197
 O         0.9119150237       -2.8222373532        3.6333278100
 O         4.4609008212       -1.7648903058        1.7113002659
 C         5.2764559745       -4.5215675017        2.2683978162
 C         3.9272876829       -5.1523484920        1.9460427552
 C         4.0098855486       -6.1641524522        0.7573139797
 C         4.5904827407       -5.3654509549       -0.4791195785
 C         3.5616184799       -4.2385095848       -0.9532849518
 O         2.8617621006       -4.7789505375        2.3518121060
 O         5.7105319071       -5.3837118388       -0.8499747037
 C         5.0861244387       -7.2835482523        1.1350185800
 C         2.5842507958       -6.7739491558        0.3871794939
 C         3.1834599309       -4.2747309157       -2.4360795672
 C         2.2109558744       -3.0998425679       -2.8233387536
 C         2.1692716108       -2.7215645042       -4.3575389017
 C         2.5791527989       -1.1715559479       -4.4688417249
 C         2.3088711183       -0.1654764269       -3.2926436638
 C         3.0601432087       -3.6861404809       -5.3195958219
 C         0.6734844877       -2.8226734138       -4.8211777249
 O         1.6042488871       -2.4934323800       -1.9650387538
 O         3.0080730907       -0.7693975108       -5.5674255898
 C         2.1430161852        1.2874208695       -3.8922557722
 C         0.7281069332        1.6565190566       -4.4236036175
 C         0.6479146244        2.8561874725       -5.4829605389
 C        -0.8454311366        2.9610502684       -6.0072402162
 C        -1.0146682640        3.3079100351       -7.5162943613
 O        -0.2241304086        0.8963171313       -4.3376368417
 O        -1.7699078787        3.0233846879       -5.1971305857
 C         1.0402826990        4.1332747201       -4.6664898883
 C         1.6354359091        2.6322198987       -6.6533859839
 H         0.3216334143        4.6585952486        2.1192180226
 H        -1.3344667880        5.1974099182        2.6883619370
 H        -0.0219929276        4.8333497743        3.9030242616
 H        -4.6555021059        2.4196433121        5.8318440075
 H        -3.9659997361        3.9548710825        5.5084704483
 H         0.0939653180        1.1355007409        4.9323959750
 H        -1.1077211381        0.5483352946        3.8383767026
 H        -1.5908850988        0.8712757896        5.5851844054
 H        -1.9753818479        4.4429564334        5.3741238096
 H        -1.5049881348        3.0696393103        6.4641963966
 H        -0.3718868040        3.9469870688        5.6167221282
 H        -6.1214866105        2.7926148671        3.8411030940
 H        -6.0331369965        4.2283501902        5.0245096361
 H        -7.2919596212        5.1938049467       -0.8146399274
 H        -5.5765650552        5.5535423113       -0.6190326054
 H        -7.8992861152        4.6894893322        3.3138901501
 H        -8.1766464557        6.3252169126        2.6166256758
 H        -7.2662391921        6.2392247431        3.9559216718
 H        -5.5819701502        7.4041632891        2.4874357437
 H        -4.5364226224        6.5999423674        1.3438494599
 H        -6.2386137130        7.0779067314        1.0009915963
 H        -6.1349718636        3.6875201331       -2.4230941994
 H        -6.6781532704        2.6985802061       -0.8939984039
 H        -4.7012870211       -0.1497361541       -2.4863963600
 H        -3.4330794696        0.0823261065       -3.7441256993
 H        -5.2675151659        1.8187892983       -3.5531795940
 H        -3.8895812908        2.1121865346       -4.3985125347
 H        -4.7838584098        3.4810805630       -3.7686916587
 H        -3.2025800623        4.6674063760       -2.6577980405
 H        -2.4893234248        4.2325680964       -1.1387512580
 H        -1.8632511487        3.4521109067       -2.7665412733
 H        -3.0125317364       -2.1528861185       -2.6821239185
 H        -1.8060740667       -1.0021708615       -2.6078519976
 H         0.6443143640       -3.2392606467        1.3476365985
 H         0.9302720888       -2.4329238690       -0.0949150146
 H        -3.4656724756       -4.0226807497        0.5709939700
 H        -3.1672830778       -2.4899724291        1.6057927994
 H        -2.1204423468       -3.9294567600        1.6836851618
 H        -0.4596352760       -4.0795998778       -0.5859961719
 H        -1.9222639744       -4.0936148443       -1.7145931344
 H        -0.6777026536       -2.9034861803       -1.8333811588
 H         1.2747950211       -0.4039779250        1.8207779982
 H         2.4773259670       -1.4710006510        1.4286724299
 H         6.3547114855       -2.7761123284        3.1452725729
 H         5.1424472757       -3.4500743353        4.2340646737
 H         4.1591318383       -0.0351147215        4.3717349452
 H         2.4986769402        0.2081213708        4.5434476179
 H         3.1906562035        0.2618494244        2.9090193147
 H         3.4389384318       -3.4814977064        5.0907140772
 H         4.2092044514       -1.9619066666        5.6582214998
 H         2.4723899794       -2.0983480085        5.7959504837
 H         5.7762877471       -4.2658373376        1.2716054574
 H         5.9548758912       -5.3513032909        2.6037240471
 H         2.6082589931       -4.2589746895       -0.3262102649
 H         4.1532934055       -3.3778062497       -0.6602822562
 H         6.1336077532       -6.9534724872        0.7618384342
 H         4.7707308510       -8.1448919605        0.5871307911
 H         5.0854425443       -7.6006473111        2.1796464176
 H         2.4547861200       -6.8370631099       -0.7148887032
 H         2.3712817128       -7.7559593906        0.8180314523
 H         1.7732229985       -6.1309912319        0.7448822839
 H         2.6703482634       -5.2372865225       -2.6809737163
 H         4.0345351907       -4.2428849694       -3.0933244823
 H         1.3536113361       -0.3904090010       -2.8126410653
 H         3.0528722255       -0.2418483027       -2.4857563247
 H         3.0794186099       -4.6906889803       -5.1159456323
 H         4.0589006392       -3.4612845622       -5.1853212548
 H         2.7655233253       -3.4490703823       -6.3764838554
 H         0.6006472498       -2.8169887304       -5.8921795728
 H         0.3057960888       -3.7895370655       -4.4737275963
 H         0.1116192674       -1.9633235262       -4.4450436024
 H         2.3148003468        1.9970413146       -3.0933081456
 H         2.9363416527        1.5433355351       -4.5863096917
 H        -2.0108722059        3.6931125325       -7.7021750530
 H        -0.2838536720        4.0630139721       -7.7338385771
 H        -0.8191413722        2.4701705461       -8.2005681458
 H         2.0627222275        4.0185445619       -4.3013180358
 H         0.3762493926        4.4561029931       -3.9368354899
 H         0.9809629309        5.0134737573       -5.3787748044
 H         2.7071030963        2.5402156420       -6.2522751287
 H         1.3081798903        1.7114471105       -7.0787805636
 H         1.6429594990        3.4381019528       -7.3368039668
 Na       -2.6168214833        1.2433126411        1.1000390147
