155

 C        -0.6193584656        4.4271745733        3.4172337486
 C        -1.4848205025        3.2494580151        2.8708849101
 C        -1.8398799533        2.0340355809        3.8331076013
 C        -3.3394881901        1.7754682788        3.6196748287
 C        -4.3680650651        2.2477409045        4.6397609492
 C        -1.0912586911        0.8653541983        3.3256299495
 C        -1.5722938838        2.3548010011        5.3700877198
 O        -1.5803107274        3.1712284401        1.6735785646
 O        -3.7497609803        1.1546672797        2.6426145922
 C        -5.7260067859        2.7570672198        4.0489813333
 C        -5.6600854475        4.0375013283        3.2836105920
 C        -6.8960916746        4.6277563177        2.6612412163
 C        -6.7824238964        4.2426944090        1.1351780656
 C        -5.7097545969        4.8207054972        0.1575551615
 O        -4.5243897198        4.5864371990        3.0716919703
 O        -7.5883807508        3.4962111887        0.6078611774
 C        -8.1821840302        3.9422532551        3.1468978376
 C        -6.9332904405        6.2151780629        2.8930144349
 C        -5.7012335004        4.2200340735       -1.2544988142
 C        -4.5772620889        3.1198352285       -1.3920879205
 C        -3.7086529814        2.7885008887       -2.6960879599
 C        -2.7007149936        1.6312571655       -2.2417272090
 C        -2.7419382083        0.2541321448       -2.9814122930
 C        -4.7537029007        2.3485593382       -3.8425478575
 C        -2.8779756361        4.0506532622       -2.9862886018
 O        -4.5074226687        2.3709056624       -0.4564164329
 O        -1.9704280548        1.7592652553       -1.3040083951
 C        -2.3058213273       -0.9267471920       -2.1659663091
 C        -3.0677923598       -1.0966130648       -0.8222359164
 C        -2.6013936097       -2.1527659175        0.1375979855
 C        -1.2141953114       -1.7280021590        0.9567997342
 C        -0.2425644447       -2.8476231542        1.6669762302
 O        -3.9708735270       -0.3348608659       -0.5087398724
 O        -0.7948074773       -0.5946850116        0.9496668344
 C        -3.6846643160       -2.2578603742        1.2455278135
 C        -2.3690950149       -3.4434668926       -0.5565458167
 C         1.1412237351       -2.2529329355        1.8932277054
 C         1.4096610973       -2.1385907650        3.3756916247
 C         2.7406655963       -1.6140507036        3.8402140190
 C         3.8290112438       -2.4620578250        3.1796439040
 C         4.3817405590       -3.7067986441        3.9262770719
 C         2.7845359174       -0.0404913600        3.5030314955
 C         2.7816832343       -1.6478634661        5.4089458061
 O         0.5071714527       -2.4027357701        4.1492279661
 O         4.2215089608       -2.1203833483        2.0860378998
 C         5.1661855993       -4.6129725228        2.9425144619
 C         4.1835935537       -5.1506415261        1.7892323511
 C         4.6990794860       -6.0642930715        0.6019669214
 C         4.8306228480       -5.1697988518       -0.7468627262
 C         4.3370558815       -3.7187539366       -0.5217197074
 O         2.9771685043       -4.8913821960        1.8740090474
 O         5.1948119361       -5.6881799711       -1.7824376192
 C         6.0877571819       -6.7045779215        0.9242841212
 C         3.5583085002       -7.0567136657        0.3475530942
 C         4.3531514435       -2.7384060650       -1.6853468885
 C         2.9388322811       -2.5973916550       -2.4449809179
 C         2.9930233439       -1.9072565853       -3.7481194240
 C         3.5078255928       -0.4112958218       -3.5055165792
 C         2.5403230456        0.4886941765       -2.7525833136
 C         4.0160737543       -2.6267110351       -4.7111347730
 C         1.5286700282       -2.0921399355       -4.2577820517
 O         1.8833701775       -2.9555300826       -1.8253801512
 O         4.6221262977       -0.0959114500       -3.6837327478
 C         2.0984585479        1.6851962159       -3.5716406757
 C         0.8982280877        1.5703637655       -4.5507144170
 C         0.8618340504        2.3826704041       -5.8960220220
 C        -0.5050901248        2.7337197869       -6.5042164883
 C        -0.6996364420        2.7631798877       -8.0230404804
 O        -0.0255559027        0.8267054432       -4.2503199390
 O        -1.3302093666        3.1812143354       -5.6741604930
 C         1.5314512946        3.7970742652       -5.6390152349
 C         1.7138551992        1.6928773468       -6.9566390006
 H        -0.5078558124        5.0029623910        2.5470116114
 H        -1.0182551219        5.0150911715        4.2014065976
 H         0.3944907034        4.0878363348        3.7576787818
 H        -4.6169580984        1.3466494268        5.1730906967
 H        -3.9193890160        3.0194565019        5.2826135103
 H        -0.0237326741        1.1831657471        3.2185782429
 H        -1.5220613526        0.5173024479        2.3734734901
 H        -1.0121316306        0.0301091822        4.0525459791
 H        -1.9643491277        3.3630213931        5.7212529013
 H        -1.9096021524        1.5118024016        6.0100260531
 H        -0.5207953756        2.3073353126        5.4439177256
 H        -6.1626818027        1.9527097777        3.4555695229
 H        -6.4596005455        2.6790513584        4.8267300407
 H        -5.8703722511        5.8746614614       -0.0200761539
 H        -4.7646183984        4.7352981180        0.6228850273
 H        -8.3565092770        2.9103950740        2.7213620822
 H        -9.0413630430        4.5468288000        2.7269720904
 H        -8.3873279219        4.0694643119        4.1380534374
 H        -7.1109437950        6.4999878830        3.9671220980
 H        -5.9810977930        6.6128836520        2.6176069499
 H        -7.7082516045        6.7674216052        2.4294711637
 H        -5.5702811812        5.0172809314       -1.9479759248
 H        -6.6418000913        3.8048141621       -1.5252219930
 H        -3.7923338596        0.0035619208       -3.3078963701
 H        -2.0185726758        0.3101227992       -3.8103744837
 H        -5.3278106942        1.4945917006       -3.4875416861
 H        -4.0810442966        2.0829992447       -4.6703089246
 H        -5.3764605197        3.1527120538       -4.1927660952
 H        -3.6069617437        4.8778621492       -3.0007606527
 H        -2.0938371126        4.1292117228       -2.3021466022
 H        -2.2557671985        4.0089192977       -3.9006804648
 H        -2.4747018441       -1.8707133776       -2.6601937895
 H        -1.2473188798       -0.8579815247       -1.7884358650
 H        -0.8148465530       -2.9503952297        2.6220995008
 H        -0.2738979153       -3.8623610345        1.1050680743
 H        -4.6046854383       -2.5470034117        0.7168232472
 H        -3.8968393936       -1.2937027053        1.7388062276
 H        -3.4701159109       -2.9598243551        2.1085606700
 H        -2.5566874329       -4.3265105717        0.1096095486
 H        -3.0463627524       -3.6445870475       -1.3198543762
 H        -1.3560291007       -3.7186475406       -0.7882359311
 H         1.2276814256       -1.1539509729        1.6087310497
 H         1.9011410930       -2.7753028618        1.2263395123
 H         5.0438713535       -3.2876526770        4.6750535502
 H         3.5340477498       -4.1678215680        4.3056405752
 H         3.7940156651        0.3054089538        3.8948094910
 H         2.0943975582        0.5889580362        3.9369816810
 H         2.6429391365        0.1080108145        2.4167288986
 H         2.8440946747       -2.6779018811        5.7405969615
 H         3.7263028253       -1.1688900496        5.7821730572
 H         1.9898660113       -1.1426889565        5.8732991140
 H         6.0964852385       -4.1767990632        2.5187609472
 H         5.4639173792       -5.4321533345        3.5595816737
 H         3.2654039512       -3.9800761865       -0.2860952539
 H         4.7250387218       -3.3445940931        0.4148612697
 H         6.7323859603       -6.0016749731        1.3847491460
 H         6.4399788254       -7.0732372134       -0.0852462464
 H         5.8022482393       -7.4242464214        1.7506363211
 H         2.9356887480       -6.8356468040       -0.4847300813
 H         4.1928406156       -7.9323418544        0.0618050863
 H         2.9565029497       -7.2635717005        1.2299516029
 H         5.2316855236       -2.7517698999       -2.3568980086
 H         4.3097460843       -1.7688069400       -1.1659652405
 H         1.6573585089       -0.1058582772       -2.4816965656
 H         2.9333630388        0.7202261837       -1.7539098128
 H         3.6772392760       -3.6956463740       -4.6183673071
 H         5.0883268638       -2.6709150562       -4.3049962109
 H         3.9032614136       -2.2912689793       -5.7416761660
 H         1.3739312311       -1.6443781093       -5.2508658203
 H         1.2910815157       -3.1205825278       -4.2722345236
 H         0.8699151518       -1.6558588057       -3.5756270111
 H         1.7535688074        2.3501247192       -2.7461315526
 H         2.9089733344        2.1030523770       -4.1799793572
 H        -1.7206632779        3.1244339331       -8.2229191658
 H        -0.0033374695        3.5219271177       -8.4127044701
 H        -0.4804472278        1.7533283158       -8.4139078670
 H         2.5792000316        3.6179235501       -5.5385911706
 H         1.1236314323        4.4287855394       -4.7759773564
 H         1.4025288277        4.3731879879       -6.4650794427
 H         2.7159997420        1.6257307850       -6.6763482970
 H         1.3079563262        0.7070140499       -7.1723058120
 H         1.8149255889        2.2786231584       -7.8910866994
 Na       -2.6962980104        1.2989109394        0.6023111354
