155

 C        -0.9314242883        4.5083318076        3.5757439114
 C        -1.5367156042        3.3194968223        2.9199870170
 C        -1.9175174824        2.0435207582        3.9223918381
 C        -3.4538012079        1.7277139189        3.6519066026
 C        -4.5188441294        2.1936592996        4.5993458332
 C        -1.0055290248        0.8770033035        3.3808939879
 C        -1.5520396165        2.3506333637        5.3353719024
 O        -1.6642284180        3.2797173076        1.6984034127
 O        -3.8135994341        1.0296420381        2.7317151759
 C        -5.8163064046        2.5419076997        3.8324739842
 C        -5.7305570376        3.8699868353        3.0936198110
 C        -7.0134879873        4.5174149652        2.5305463816
 C        -6.8423726657        4.2298001318        0.9516892442
 C        -5.7525323026        4.8624138766        0.2536512535
 O        -4.6966989851        4.4297862891        3.0532808265
 O        -7.6662532568        3.5131824752        0.4083595710
 C        -8.2907424409        3.8291751161        3.0772879107
 C        -7.0883806685        5.9602095252        2.8659600977
 C        -5.4368072325        4.3816553476       -1.2101571349
 C        -4.5270934099        3.1860731701       -1.1266361606
 C        -3.7936444121        2.8117725597       -2.5069942859
 C        -2.6905874301        1.6735586849       -2.3110845206
 C        -2.7692662188        0.3143360937       -2.9654281570
 C        -4.7901589254        2.4148289301       -3.6458319620
 C        -2.9660302506        4.0400838935       -3.1561366500
 O        -4.4463911284        2.5443517866       -0.1079491141
 O        -1.7155302206        1.9994611648       -1.6259636161
 C        -2.1187387529       -0.8184663922       -2.0786179218
 C        -3.0277637507       -1.0585209720       -0.8615555980
 C        -2.6685606354       -2.1812591649        0.1287879343
 C        -1.1786102709       -1.7396104881        0.7820976444
 C        -0.2905778270       -2.9473020863        1.3781700771
 O        -3.9563625125       -0.3436440031       -0.6354326507
 O        -0.8707568804       -0.5793060898        0.6921822714
 C        -3.6175261062       -2.3139130918        1.2604554993
 C        -2.5128653016       -3.5462510055       -0.5228966158
 C         1.0814688082       -2.6279729019        1.9993495633
 C         1.2622408637       -2.1665192460        3.4492121645
 C         2.6554787429       -1.5925000745        3.8328087745
 C         3.7465864518       -2.5551870146        3.2383967779
 C         4.2245003908       -3.8947315747        3.9841140219
 C         2.9764307589       -0.2185624485        3.2489880245
 C         2.7587531943       -1.5099595714        5.3969589609
 O         0.3770863704       -2.2820944929        4.2639585472
 O         4.2663991376       -2.2272332620        2.1890020742
 C         5.0439103289       -4.7867870022        3.1023554943
 C         4.1046728689       -5.2602991277        1.9322926262
 C         4.7924451224       -5.9809897354        0.6688369571
 C         4.7637790143       -4.9627561288       -0.6026071496
 C         4.3141770668       -3.5616289825       -0.4294447709
 O         2.8980032357       -5.0743611845        1.9749765853
 O         5.1713513553       -5.3491901393       -1.6940747445
 C         6.2821606095       -6.4960643146        0.8956204232
 C         3.8121525322       -7.0965864205        0.1900142960
 C         4.4291778093       -2.6210499697       -1.5426353117
 C         3.1232739204       -2.6248286291       -2.3326011365
 C         3.1350428139       -1.8239624464       -3.8412422428
 C         3.5079109649       -0.4387232687       -3.3866620448
 C         2.4164545409        0.5710931232       -2.8220627809
 C         4.2009859749       -2.6462275128       -4.6492931436
 C         1.7659911059       -1.9193353865       -4.5761162665
 O         2.0980039251       -2.7741619433       -1.7664369236
 O         4.7363789559       -0.1989391246       -3.2750810164
 C         2.0684484241        1.7964251923       -3.6824270787
 C         0.8681932967        1.5750289481       -4.6886450966
 C         0.9194952040        2.4640246672       -5.9934470118
 C        -0.5506849194        2.8676244242       -6.5358826480
 C        -0.7846105805        2.5273372252       -8.0523238808
 O         0.0470756354        0.7549582593       -4.4393474808
 O        -1.3250555060        3.2511773913       -5.7216960009
 C         1.6301726622        3.8495795816       -5.6804550441
 C         1.7914940985        1.5470859927       -6.8957870445
 H        -0.8028730408        5.4564196675        2.9625198756
 H        -1.5566711162        4.7122112591        4.5344142840
 H        -0.0015788778        4.1834872717        3.9367999072
 H        -4.6579344785        1.2459892100        5.1952833546
 H        -4.2348747573        3.0536650955        5.1719971762
 H         0.0100455595        1.1396870978        3.3337305232
 H        -1.3585579543        0.4972352905        2.4687119562
 H        -1.0457077661        0.0981621529        4.1186498450
 H        -2.1077869648        3.1787898290        5.7063133055
 H        -1.5974704038        1.4131741872        5.8725896314
 H        -0.4626502673        2.6649310124        5.3748396284
 H        -6.1995204446        1.6668318162        3.3242488460
 H        -6.6460462367        2.5007033493        4.6001247831
 H        -6.0832507948        5.9380467239        0.2089540342
 H        -4.7891303527        4.8044437078        0.8601115513
 H        -8.0744049135        2.7960829620        2.8814816910
 H        -9.2776931283        4.1323216648        2.7444482467
 H        -8.4985512444        4.0826213494        4.1834682832
 H        -7.6049158473        6.2343506749        3.7521454971
 H        -6.1107892266        6.4865768875        2.8568099351
 H        -7.7882754039        6.4533992755        2.0938355477
 H        -4.9794218805        5.2058229301       -1.8135201283
 H        -6.3101409425        4.1249755319       -1.8741668823
 H        -3.8251407449        0.1099976712       -3.1301680976
 H        -2.1570148509        0.1556161515       -3.8787642109
 H        -5.4013335056        1.4954736669       -3.4164340854
 H        -4.2687121625        2.3602057521       -4.6340254278
 H        -5.4743107625        3.3246407287       -3.6825514874
 H        -3.6338041154        4.6780493601       -3.7165509092
 H        -2.3872874316        4.6357598421       -2.4563535233
 H        -2.1088664705        3.6148615799       -3.6303581114
 H        -2.0725473470       -1.7854110133       -2.6108058454
 H        -1.1620940519       -0.6178071885       -1.6788890623
 H        -0.9889066358       -3.5530701175        1.9031256259
 H        -0.0975021836       -3.4187908574        0.4502940329
 H        -4.6322500329       -2.5627099517        1.0024661189
 H        -3.6095087502       -1.5200422597        1.9745318660
 H        -3.2804606423       -3.0870219938        1.8224667979
 H        -1.8836267684       -4.2461957614        0.0041687886
 H        -3.5304677054       -4.0351203493       -0.6617996412
 H        -1.9830558710       -3.5667196454       -1.4589332942
 H         1.7226299583       -2.0116103121        1.3948761571
 H         1.5064062869       -3.5906248423        1.9770419665
 H         4.8999930555       -3.5161667148        4.7479794249
 H         3.2270199270       -4.2525775096        4.3326695123
 H         4.0139036704       -0.0163091184        3.2359418259
 H         2.5146816901        0.6501323246        3.8275449415
 H         2.4303822812       -0.1429354262        2.2987958891
 H         3.0267658916       -2.5310566721        5.7477659337
 H         3.5798080616       -0.9520342792        5.7880213442
 H         1.8108501691       -1.1344660565        5.8811510595
 H         5.8708554507       -4.1609215352        2.8226038047
 H         5.4415732058       -5.6089959062        3.7151387691
 H         3.3477140888       -3.6192567049       -0.0172134661
 H         4.9513642564       -3.2816035244        0.4247848629
 H         6.9967204661       -5.6700897147        0.6847267956
 H         6.3043770855       -7.2717108561        0.2201253358
 H         6.3611739058       -6.7843693294        1.8840416268
 H         2.8266375712       -6.7577275609        0.5459875661
 H         3.8128993800       -7.3016694671       -0.8401337502
 H         4.0575702801       -7.9411566221        0.8098691096
 H         5.2096364954       -2.8458841432       -2.2539237061
 H         4.5440602087       -1.6008436484       -1.1796710634
 H         1.5718255644       -0.0063868788       -2.3834418777
 H         2.9219298409        0.9568801132       -1.9124951715
 H         4.3134503199       -3.6960676694       -4.4052550204
 H         5.0570487945       -2.2384419061       -4.2586824041
 H         4.1165781423       -2.4358451709       -5.6735051890
 H         1.7728603691       -1.4719101927       -5.5569400484
 H         1.4886975197       -2.9757442154       -4.6437335185
 H         0.9792361758       -1.4342221950       -3.9730761515
 H         1.7065619067        2.5170018985       -2.9576423340
 H         2.9679384166        2.2147997885       -4.1516133088
 H        -1.7725344497        2.8409917513       -8.3216177895
 H        -0.0305209589        3.0281687413       -8.6615202294
 H        -0.6384352310        1.4531684290       -8.0970615692
 H         2.7114288748        3.6454181727       -5.4437528688
 H         1.1166331454        4.3496542563       -4.8864643230
 H         1.4938027681        4.6675397705       -6.5348827667
 H         2.6667381796        1.0774180228       -6.2940225269
 H         1.2271843792        0.6860393772       -7.2342234197
 H         2.3461265948        2.0508147275       -7.6540257109
 Na       -2.5824593354        1.2902870650        0.6728582661
