155

 C        -2.0827783255        4.7687684511        3.6360661970
 C        -1.9997526989        3.3252500840        3.5675464330
 C        -2.8278369494        2.3953601934        4.4992797473
 C        -3.8995846073        1.6413653939        3.7482720563
 C        -5.1752054961        1.1915640170        4.4389090186
 C        -1.9117915842        1.2306405509        5.0936287084
 C        -3.4833940465        3.1056650227        5.7953990655
 O        -1.1752960035        2.7892980262        2.7890359068
 O        -3.6630681606        1.2218825834        2.6220099036
 C        -6.2777542738        1.3567985277        3.3960822589
 C        -6.3488842238        2.8731316484        2.9920644138
 C        -7.4242702721        3.3645329041        1.9178312178
 C        -6.4045731039        3.6161585532        0.7377886709
 C        -5.3451425318        4.8393629326        0.7402436291
 O        -5.6263486062        3.6486930296        3.5354396451
 O        -6.2698049897        2.7605529380       -0.1691982185
 C        -8.5224767747        2.2916621331        1.5252449321
 C        -8.1269301755        4.6601651284        2.4459753883
 C        -4.5706556823        4.9227098439       -0.6297571408
 C        -3.8277963944        3.6332244088       -0.8244937127
 C        -3.6546978106        3.0461910956       -2.2322511558
 C        -2.6357409543        1.8182645005       -2.2332856380
 C        -3.0333197836        0.5555842849       -3.1994969088
 C        -5.0759834201        2.6325535358       -2.8063984509
 C        -2.9799587575        4.1818938442       -3.0860263487
 O        -3.1568692104        3.1997595018        0.1240422362
 O        -1.6654191649        1.7225493703       -1.5093768008
 C        -2.4619498396       -0.6729875377       -2.6028914896
 C        -3.0185112467       -0.7864315182       -1.1244287214
 C        -2.3104950768       -1.8735224750       -0.2500443673
 C        -0.9574081911       -1.4454554135        0.1851208396
 C         0.1859591621       -2.5652934472        0.3937326313
 O        -3.7716375278       -0.0124546398       -0.6175479639
 O        -0.8059455131       -0.3449860004        0.6407977141
 C        -3.0995621373       -2.0160079699        1.0390607229
 C        -2.4082889536       -3.1921319613       -1.0758658059
 C         1.2558874434       -1.9326684045        1.2818967515
 C         0.9140658323       -2.0734035383        2.8033811168
 C         2.0538803047       -1.7728507906        3.8547991426
 C         3.1227017875       -2.9716317697        3.6016883432
 C         2.8028851931       -4.3387570800        4.1686610508
 C         2.6096614120       -0.4169419001        3.6485461163
 C         1.4645731145       -1.9442016433        5.2997160588
 O        -0.1339195815       -2.5528976116        3.1757180438
 O         4.1081089931       -2.7956470496        2.8555938600
 C         3.7008545016       -5.3843625013        3.5328021995
 C         3.6570304773       -5.3132737780        1.9928170840
 C         4.9895791909       -5.7578895550        1.2141308843
 C         5.1096335727       -5.1041994669       -0.2917547230
 C         4.6311527696       -3.6786774984       -0.4724799676
 O         2.6437178474       -5.0143840279        1.3778448499
 O         5.4814693342       -5.7708831755       -1.2269200812
 C         6.3158810177       -5.2616736573        2.0739266080
 C         4.9479144039       -7.3261541021        1.0291539540
 C         4.9434530372       -2.9963969792       -1.7862454900
 C         4.0970733253       -1.7643441144       -2.0201760328
 C         4.1827628481       -1.1191814002       -3.4350497660
 C         3.5427996375        0.3503231860       -3.2834569401
 C         2.0040436666        0.4079739093       -3.1723458714
 C         5.6165658767       -0.9175714773       -3.9477174134
 C         3.3659861657       -1.9351246446       -4.5340286669
 O         3.5188349408       -1.2270179644       -1.0861036872
 O         4.2584966442        1.3274955981       -3.2856452995
 C         1.2565874647        1.5806629391       -3.8885745873
 C         1.2161985050        1.2876501489       -5.5005720446
 C         1.1161063394        2.4637109405       -6.5572821399
 C        -0.4322568249        2.5667120613       -6.8987503858
 C        -1.1461511403        1.2203754502       -7.1648961676
 O         1.1049481844        0.0944636104       -5.7443493480
 O        -1.0929389206        3.5989087526       -6.7483697344
 C         1.4955412889        3.8597388893       -5.9431659931
 C         2.0001365922        2.2055017456       -7.6862651707
 H        -1.4054972339        5.2393956952        2.8715884770
 H        -3.1865546826        5.1109826277        3.3987937255
 H        -1.8981665332        5.0602517597        4.6319429861
 H        -5.0749767156        0.1659548314        4.7228230197
 H        -5.4402835142        1.6737309141        5.4408195212
 H        -0.9723818235        1.6055922392        5.6082772293
 H        -1.6488115409        0.7103209785        4.1558502521
 H        -2.4133148290        0.5435922545        5.8111112373
 H        -4.3224315150        3.6858020845        5.5116067894
 H        -3.7499468672        2.3361961403        6.5107018729
 H        -2.7291995502        3.7273585881        6.3609124237
 H        -6.0434365759        0.7772791335        2.4555515303
 H        -7.2068595859        1.1180726631        3.8576274952
 H        -5.8369535361        5.7611335275        1.1012905240
 H        -4.6201571747        4.5521872882        1.5076645304
 H        -8.0154089883        1.5921654199        0.8276561685
 H        -9.4190438203        2.8288835093        1.0760120180
 H        -9.0229834075        1.8250229855        2.3967884464
 H        -8.5584639403        4.4650910474        3.4009145527
 H        -7.4417424460        5.5039189943        2.6201874934
 H        -9.0483927215        4.8021481010        1.7601102053
 H        -3.7062362667        5.5803253586       -0.5901684544
 H        -5.2083892506        5.1571878020       -1.4717975921
 H        -4.0257996659        0.5718090499       -3.4789248762
 H        -2.5033864487        0.8177205446       -4.1258163939
 H        -5.4686654995        1.7811153823       -2.2451903277
 H        -5.0516084000        2.2875296032       -3.8368831114
 H        -5.7909465641        3.4477372833       -2.6279494513
 H        -3.7014769649        5.0214955390       -3.0672966898
 H        -2.0179083807        4.5128610859       -2.8792858857
 H        -2.8332887252        3.8759502978       -4.1394029061
 H        -2.5759078662       -1.5742475501       -3.1569273760
 H        -1.3927578252       -0.4514526325       -2.4899366107
 H        -0.5212228015       -3.3645623276        0.8940663924
 H         0.5283162645       -2.9026823126       -0.5932799491
 H        -4.0586650283       -2.4175944601        0.7897330235
 H        -3.2523380277       -1.1336137000        1.5942073127
 H        -2.6265414072       -2.6275808422        1.7365239523
 H        -2.3577582483       -4.0589015756       -0.5220227344
 H        -3.4417776173       -3.0575535310       -1.4500633839
 H        -1.5935458528       -3.2225390219       -1.7559587373
 H         1.4114047778       -0.9830273261        0.9051937478
 H         2.1635335882       -2.5945170321        1.2708619584
 H         2.9693256297       -4.5146952979        5.2004543036
 H         1.7113120554       -4.5681576924        4.1863855757
 H         3.1996470981        0.0069530201        4.4609449862
 H         1.8148520861        0.3450360027        3.5103686334
 H         3.2430368760       -0.4518845699        2.6791993142
 H         0.9756962850       -2.8967989711        5.4654342818
 H         2.2025536057       -1.8045307650        6.0412115499
 H         0.6739125176       -1.1794219991        5.5411532910
 H         4.6189144513       -5.2405647265        4.0010908160
 H         3.3974921034       -6.3461201508        3.8913892249
 H         3.5675248446       -3.7088088679       -0.3188830219
 H         5.0059085095       -3.1840648057        0.4154548658
 H         6.0624877169       -4.1965836713        2.3674882420
 H         7.0055832824       -5.2324909205        1.2692900202
 H         6.5408817063       -5.9065656193        2.8923600699
 H         4.6627134905       -7.8039989963        2.0143739031
 H         4.0546813175       -7.5048419769        0.4466541625
 H         5.8341020695       -7.9010438019        0.6473120344
 H         4.6087184485       -3.7374973461       -2.5178533614
 H         5.9992627102       -2.6698510165       -2.0052253482
 H         1.6073645690       -0.5921886727       -3.5014802130
 H         1.7856991962        0.5689317524       -2.0934419001
 H         6.3245943810       -1.8042466641       -3.8458880381
 H         6.0863988975       -0.1369803924       -3.4012398654
 H         5.5987645342       -0.6808741365       -4.9389026515
 H         3.0490377390       -1.3598599489       -5.3550600475
 H         4.0276813631       -2.7329771254       -4.8463811760
 H         2.5193788156       -2.5507136379       -4.1676714642
 H         0.2141068164        1.5645588731       -3.5167964795
 H         1.6992475512        2.5377339552       -3.6946016787
 H        -2.0382217804        1.3332507130       -7.7541978147
 H        -0.3493698782        0.6731889001       -7.7105510030
 H        -1.3301974892        0.8055846956       -6.1622182650
 H         2.3976985993        3.7263378881       -5.3091619723
 H         0.6340423470        4.1954428830       -5.2215077474
 H         1.5025389988        4.6338232052       -6.7241118156
 H         3.0943335686        2.2995938668       -7.5107810255
 H         1.7994957932        1.2574162583       -8.1258887546
 H         1.8281134894        2.9117901210       -8.4438461043
 Na       -1.9493374014        1.2841850200        0.8352413877
