155

 C        -2.2029043331        4.5080338050        3.8715069736
 C        -2.2173833413        2.9618153920        3.7440176711
 C        -3.0308852118        2.0163189976        4.6246692073
 C        -4.1630000180        1.2210583203        3.7705309143
 C        -5.6376093991        0.9891830124        4.3533117434
 C        -2.1815095088        0.8579873783        5.2719683646
 C        -3.7569054498        2.8441228558        5.7784050247
 O        -1.5691298780        2.4632658467        2.8479510177
 O        -3.8393460840        0.7641847992        2.7532647482
 C        -6.6659616072        1.0610967266        3.2173867200
 C        -6.8198888206        2.6587763677        2.7805996093
 C        -7.6129011281        2.9738033333        1.4733410122
 C        -6.4808790576        3.3589793082        0.3528557766
 C        -5.9740897822        4.8717743002        0.3289259013
 O        -6.3654398073        3.5250934683        3.4239195178
 O        -5.8820462065        2.4790509093       -0.2141588770
 C        -8.5765441712        1.8426516182        0.8707083119
 C        -8.5606517587        4.1389323086        1.8494601206
 C        -5.0864504402        5.1976727165       -0.8357558509
 C        -4.0404974847        4.1114968025       -0.9223128156
 C        -3.5836736960        3.6430648271       -2.5038066634
 C        -2.6894764790        2.3335281777       -2.4380746690
 C        -3.2902883160        0.9850333990       -2.9308929058
 C        -4.8520444260        3.4739075216       -3.3265505398
 C        -2.6478707113        4.7372390549       -2.9250760385
 O        -3.3511234403        3.8255943201        0.0777563137
 O        -1.6142735859        2.4187141377       -1.8472425033
 C        -2.5575475986       -0.1729026542       -2.2879040139
 C        -2.9548098715       -0.5715007951       -0.8647833545
 C        -1.9656562663       -1.8487813637       -0.2854966301
 C        -0.6877943758       -1.2038487720        0.3132588911
 C         0.6415918114       -1.8765646423        0.2118259369
 O        -3.9725392821       -0.2240126354       -0.3229354265
 O        -0.7824844832       -0.0338636882        0.7116668880
 C        -2.8275098879       -2.3714797547        0.9541540318
 C        -1.6544448488       -2.9828131584       -1.3867156290
 C         1.5729621377       -1.5741808228        1.4368076038
 C         0.9429497563       -2.2057236803        2.6995300714
 C         1.8204793712       -2.0938488665        4.0750025076
 C         2.8441622809       -3.3136653998        3.8753240695
 C         2.3609931152       -4.7569223557        3.9366880124
 C         2.5929108128       -0.8139622932        4.1014487300
 C         0.9033901300       -2.4149212526        5.3336459347
 O        -0.0488331235       -2.8925645209        2.6554881795
 O         3.9843873496       -3.0718885400        3.6800740290
 C         3.6055462507       -5.6985683319        3.5170814368
 C         3.7953085017       -5.4889697277        1.9533413473
 C         5.2729695842       -5.3947516314        1.3726417100
 C         5.1162877638       -4.8408429720       -0.0391999146
 C         4.7743025110       -3.3488638975       -0.2473784571
 O         2.8274562228       -5.4754393012        1.1824856604
 O         5.0577553333       -5.5295969153       -1.0611076986
 C         6.2397351118       -4.6175751287        2.2324427145
 C         5.6888679180       -6.9193333860        1.2899533195
 C         4.8294976627       -3.0075388369       -1.7463975802
 C         4.5942900829       -1.3984366434       -1.8896055502
 C         4.8359614373       -0.7886640357       -3.2390612740
 C         3.7472511087        0.3211539329       -3.5522498615
 C         2.2348949808       -0.0343396510       -3.4640420763
 C         6.2010511539       -0.0617011826       -3.2358886232
 C         4.7858842651       -1.8045669069       -4.4621251730
 O         4.1431519344       -0.7476032502       -0.9978855079
 O         4.1154861663        1.3995246771       -3.8987930454
 C         1.4234337650        1.0864194781       -4.0517079739
 C         1.4882661652        1.0194738526       -5.6078202951
 C         1.0114961800        2.3260810252       -6.3700834594
 C        -0.4728139364        2.1109412009       -6.4304769686
 C        -0.9880990857        0.8578778916       -7.3078030734
 O         1.7617657741        0.0065788703       -6.1761575063
 O        -1.2197875827        2.8352878228       -5.7489813790
 C         1.4456494417        3.4996248856       -5.4961142866
 C         1.5940416297        2.4882894633       -7.7890605791
 H        -1.6338944160        4.9391003916        3.1134345103
 H        -3.1251319858        4.9014286796        3.8352904407
 H        -1.7751291359        4.8200866965        4.8728200837
 H        -5.6680022006        0.0488479069        4.9085928355
 H        -5.9358035150        1.8015392003        5.0435840163
 H        -1.5047252186        1.2315283424        5.9818722333
 H        -1.6291251006        0.3415995796        4.5343110825
 H        -2.9105464681        0.1583905712        5.6761465626
 H        -4.0600650946        3.7851903291        5.3078450650
 H        -4.6778869281        2.4110963317        6.1964741590
 H        -3.0775797046        3.1797988095        6.6298666439
 H        -6.2632068300        0.6375414895        2.3096111423
 H        -7.5553138372        0.7746285567        3.6293282687
 H        -6.7733497192        5.5816936133        0.4264456102
 H        -5.4549302349        5.1121335490        1.2558936104
 H        -8.0009357594        1.0017884918        0.5340670257
 H        -9.0080314320        2.2910000535       -0.0200858008
 H        -9.1705354749        1.5236620517        1.6434153555
 H        -8.9637442144        3.9685801720        2.8451282198
 H        -8.1711063338        5.0870104810        1.7113917699
 H        -9.3210644335        4.0582325424        1.1061772730
 H        -4.5098756577        6.1197188843       -0.6999911916
 H        -5.6748810998        5.3725915932       -1.7133969941
 H        -4.3435036199        1.0005618091       -2.6128425866
 H        -3.0708829846        1.0338237637       -4.0341745269
 H        -5.6316824684        2.8450905674       -2.8825718851
 H        -4.6709730115        3.0833121548       -4.3264291063
 H        -5.2861582662        4.4333281942       -3.5966611084
 H        -3.0730446292        5.7909202717       -2.9827155489
 H        -1.8569258038        4.9035976685       -2.2217726653
 H        -2.2481818642        4.5710878388       -3.9400389860
 H        -2.8465503657       -0.9831020252       -2.9804165755
 H        -1.4444934130        0.0043176211       -2.2893935789
 H         0.5930906963       -2.9745399725        0.0349544343
 H         1.1352508772       -1.4453198191       -0.6478767395
 H        -3.7927870490       -2.8372737674        0.5894786006
 H        -3.2233484765       -1.5852734798        1.6677337955
 H        -2.2898389592       -3.2339204281        1.5303563754
 H        -1.1674848968       -3.8373782484       -0.8498570290
 H        -2.6739140993       -3.2769257541       -1.7122317151
 H        -1.2226594344       -2.4977185263       -2.2173209186
 H         1.6543127220       -0.4757932173        1.4334697235
 H         2.6147418774       -1.9737848817        1.4760063044
 H         2.0264230505       -5.0619852416        4.8814839155
 H         1.5560334928       -4.8748846845        3.1538067753
 H         3.4684863479       -0.8849192792        4.7946223776
 H         1.9527423211       -0.0205373028        4.2684392410
 H         3.0268475669       -0.6924315780        3.1058859687
 H         0.1435944638       -3.2008116134        5.0691060437
 H         1.3799663552       -2.7745280991        6.2147757382
 H         0.3699479383       -1.4850295964        5.6397190434
 H         4.4279824278       -5.3696493320        4.1383032162
 H         3.3132290055       -6.7352573340        3.8036165599
 H         3.7301763678       -3.2877369025        0.0199491763
 H         5.4172592364       -2.5837095343        0.3000914527
 H         5.7183425193       -3.7499804199        2.5687866124
 H         7.1062117923       -4.3046334102        1.5295590114
 H         6.7267388194       -5.1450247515        3.1222633714
 H         6.6825226358       -7.1016991043        1.6100266474
 H         5.0511874776       -7.6305614884        1.7353968990
 H         5.8155739686       -7.2149796131        0.2483273245
 H         4.1644773039       -3.5194240793       -2.3884494864
 H         5.8760706455       -3.2728154283       -2.1048939226
 H         2.1076390259       -1.0098387533       -3.9368274572
 H         1.8237268421       -0.3326335348       -2.5081710515
 H         7.0193514916       -0.6631787944       -2.8718657980
 H         6.1453353878        0.9481731682       -2.6668214614
 H         6.5198878154        0.2448556458       -4.3032813332
 H         5.1641150644       -1.3954021292       -5.4253360329
 H         5.4879871236       -2.5906932061       -4.2449107242
 H         3.8144960985       -2.1942348628       -4.6377314573
 H         0.3688074931        0.9490905102       -3.7875861992
 H         1.8893998632        1.9945006657       -3.7251540584
 H        -0.7398970410        1.1481858605       -8.3315937643
 H        -0.5524287654       -0.1027450384       -7.0964302182
 H        -2.0716822279        0.9107063295       -7.2357873054
 H         2.5096884046        3.4685701614       -5.3350942873
 H         0.8366955375        3.4803312526       -4.6471612426
 H         1.3741882354        4.4208700829       -6.0598980971
 H         2.7349528930        2.5299650304       -7.7867766138
 H         1.4349813198        1.5969720472       -8.3979275095
 H         1.0924067156        3.3007257246       -8.2911596809
 Na       -2.3372221119        1.7253336435        0.7914609453
