155

 C        -3.6512707444        3.3122041185        5.0955701510
 C        -3.7036755554        2.2575280269        4.0037456609
 C        -4.4870496351        0.9111742429        4.2067197103
 C        -5.5037438165        0.7624185836        2.9249619637
 C        -6.9962271886        0.6845763546        3.1719409080
 C        -3.4831614448       -0.2412301578        4.1699057270
 C        -5.2644659488        1.0358747849        5.5950350582
 O        -3.1652101748        2.4947875533        2.9591676915
 O        -5.0287159776        0.6734917406        1.7956671967
 C        -7.7487873665        0.7845881949        1.8064153648
 C        -8.1701570954        2.2364936186        1.5050156974
 C        -8.7502461227        2.5154958878        0.1415291748
 C        -7.5249921198        3.0559769884       -0.6589306339
 C        -6.7470232277        4.3353252619       -0.1633601211
 O        -7.9820611926        3.2422174442        2.2692153536
 O        -7.1558775636        2.5178628278       -1.6614786846
 C        -9.3823519294        1.2592333468       -0.5552975384
 C        -9.8976216648        3.5232430923        0.2396384272
 C        -5.4165992455        4.5274953962       -1.0008897797
 C        -4.1642881155        3.7925118128       -0.4376029024
 C        -2.7519909957        4.1982366122       -1.0098586358
 C        -1.8559618167        3.0176829236       -1.3288173736
 C        -2.1139162389        2.2264771693       -2.5976081968
 C        -2.8628633599        5.0833467213       -2.2942801269
 C        -2.1804605885        5.0418781589        0.2316552474
 O        -4.3312423873        2.7832668876        0.2756498777
 O        -0.9528335254        2.6215716151       -0.5887803628
 C        -1.0678535599        0.8756957578       -2.4940475692
 C        -1.3497515350       -0.0187644881       -1.2560166925
 C        -0.2749104638       -1.0215237154       -0.6300217495
 C        -0.0413440216       -0.4855588907        0.9161820466
 C         1.4329725479       -0.5955873596        1.4738626758
 O        -2.4566185678       -0.1042831624       -0.7396798904
 O        -0.8055657206        0.1423054695        1.6347584467
 C        -0.8793433764       -2.3888066323       -0.5966711745
 C         1.0081144348       -0.8480596165       -1.4063782243
 C         1.4007055587       -0.7077778546        2.9889694978
 C         0.4927333995       -1.9098020324        3.4335918538
 C         0.8538809042       -2.7975201417        4.7916383352
 C         2.4092948165       -3.2201723261        4.5803127305
 C         2.6448251640       -4.6100686507        3.9611161449
 C         0.8791825627       -1.7852288133        5.9892503933
 C        -0.1445112106       -3.9621414244        4.8073693174
 O        -0.4432800031       -2.2160954972        2.7627415751
 O         3.2991852806       -2.4153460213        4.6410972989
 C         4.1054520003       -4.7575555129        3.4504318755
 C         4.2426518540       -4.9798536574        2.0144201902
 C         5.6066384757       -5.4192685108        1.2934057314
 C         6.1606547728       -4.1597456600        0.4089580653
 C         5.1703310779       -3.4393962868       -0.5328951653
 O         3.2517171940       -4.7903927062        1.3072198799
 O         7.3579095768       -3.9390313872        0.4298104721
 C         6.6322630686       -5.8891853059        2.2805314704
 C         5.2442731573       -6.5206272925        0.1931226655
 C         5.7826418326       -2.1050574768       -0.9985736298
 C         4.8273409536       -1.3832869517       -1.9836601911
 C         5.2893081983       -0.0200465038       -2.5545991561
 C         4.0561637728        0.8153797529       -2.9453997185
 C         3.2659075145        0.5128998157       -4.3002750081
 C         6.2123234130        0.8225855115       -1.6829942080
 C         6.1560722841       -0.4128652721       -3.8980793689
 O         3.8290830613       -1.9961596148       -2.4137556927
 O         3.7827779307        1.8657218544       -2.3987500394
 C         2.5713374651        1.7708708507       -4.8386663893
 C         2.2630356634        1.6795386026       -6.4256837092
 C         0.7624259942        1.7119553508       -6.9820648906
 C         0.1744947450        0.2981961354       -6.6503176785
 C         0.3490676062       -0.8813869177       -7.6694237165
 O         3.2311604653        1.6320418380       -7.1887000468
 O        -0.3023981783        0.0730495659       -5.6071459344
 C        -0.0006518355        2.7961898594       -6.2619699507
 C         0.7588259409        2.1526853999       -8.4986274946
 H        -3.1031398116        4.2348946689        5.0302294778
 H        -4.6625647667        3.5584164545        5.2990658636
 H        -3.1961800090        2.7925206220        6.0162998445
 H        -7.2709363904       -0.2196142667        3.6740233696
 H        -7.3703198838        1.5407365986        3.7878036743
 H        -3.8154441675       -1.1548352620        4.7031657896
 H        -2.5695894510        0.0222887695        4.7451242892
 H        -3.2529297244       -0.5048312588        3.1078065201
 H        -5.8542393168        2.0060495329        5.5432292186
 H        -5.8549026386        0.1671364631        5.8868469165
 H        -4.5116791888        1.0788934711        6.3353645612
 H        -6.9815178582        0.6261268554        0.9315056736
 H        -8.6982063379        0.2547609702        1.7938120998
 H        -7.3367919028        5.2117381929       -0.0958469759
 H        -6.3912737631        4.1527430393        0.8844065540
 H        -8.6686558275        0.5554266736       -0.9116944278
 H        -9.9360054733        1.5913414618       -1.5303019853
 H       -10.1375676980        0.8693822022        0.0108941860
 H       -10.6950082529        3.0795715227        0.7312877962
 H        -9.6388835413        4.3804143770        0.8344447862
 H       -10.2650524368        3.8128818075       -0.7867300647
 H        -5.1441438017        5.5533759487       -1.1074741023
 H        -5.6292816283        4.1708937985       -2.0143376835
 H        -3.0941803287        1.7674179098       -2.6713089874
 H        -1.9506882408        2.7522424571       -3.5850161717
 H        -3.5240174641        4.7850627388       -3.0957057525
 H        -1.8864517749        5.2666846065       -2.6909166192
 H        -3.1323459994        6.0932189236       -2.0551918012
 H        -2.8758909916        5.8904657963        0.4297799043
 H        -2.1343254464        4.4867477708        1.0973724055
 H        -1.1233671882        5.2891461621       -0.0926208311
 H        -1.1084177718        0.4088291386       -3.4891817464
 H        -0.1200479599        1.2481326887       -2.1960906509
 H         1.8262073271       -1.3012998569        0.8560426696
 H         2.0511248957        0.2716872935        1.1708428134
 H        -1.1991418265       -2.5168110419       -1.6492376715
 H        -1.8793467555       -2.4220535144        0.0042396682
 H        -0.1517313742       -3.1275748394       -0.2051712935
 H         1.8443493464       -1.4312466253       -1.1152267001
 H         0.9998279477       -1.2287117761       -2.4524571322
 H         1.2267318115        0.2488145577       -1.5502112344
 H         0.9267787604        0.1901149282        3.3244013187
 H         2.4466743817       -0.7195386991        3.3475187105
 H         2.4243628580       -5.5126786551        4.5448278458
 H         2.0292944967       -4.7095722153        3.0364538650
 H        -0.0424959787       -1.4704799552        6.2872529526
 H         1.5575253016       -0.9926117853        5.6356712344
 H         1.3807940291       -2.1455008776        6.8681314586
 H         0.0595575207       -4.5413064568        3.9319205141
 H        -0.0264190066       -4.6649779997        5.6815600220
 H        -1.1196469875       -3.5257475530        4.8809979384
 H         4.5276636558       -3.8186690784        3.6797043202
 H         4.6197598889       -5.4916226761        4.0426745841
 H         4.9593694665       -4.0307575408       -1.4183688329
 H         4.1797243843       -3.3579522187        0.0400675532
 H         6.9019426319       -5.0906532324        2.9266230272
 H         7.4455942926       -6.4358493216        1.7530868152
 H         6.1906768147       -6.6409383136        2.9253066372
 H         4.1349642052       -6.6849513687        0.1756158704
 H         5.5975985213       -6.1335648592       -0.7873426495
 H         5.8213615011       -7.3668630681        0.4933272784
 H         6.6861402190       -2.3809608395       -1.5156608529
 H         6.0137797395       -1.4280367127       -0.1280067524
 H         3.8897357812        0.1282802086       -5.1427376277
 H         2.6331520872       -0.3925015669       -4.2638370957
 H         7.0900394033        0.2072398158       -1.3535578463
 H         5.6537309836        1.1474637909       -0.7243181952
 H         6.4956657489        1.6915411472       -2.2681674012
 H         6.6348556781        0.4233988127       -4.3216123435
 H         7.0304901213       -0.9658033033       -3.5397195824
 H         5.6365270650       -0.9106545700       -4.7221707149
 H         1.6630781196        2.0392683774       -4.2987296828
 H         3.2356674329        2.6016482130       -4.6634100602
 H        -0.0974922511       -1.8042480169       -7.3145071197
 H        -0.1322661745       -0.7124104845       -8.6157079856
 H         1.4118104158       -0.9158818579       -7.8747702161
 H         0.3129885946        3.9322634597       -6.3531000548
 H        -0.1511672978        2.5020793174       -5.1767466512
 H        -1.0304276512        2.8918672700       -6.6215231859
 H         0.0210706890        1.6571528692       -9.1051746192
 H         0.5807699711        3.2311411008       -8.4589687945
 H         1.7328780394        1.8116014081       -8.8677550820
 Na       -2.8995539227        1.0116530194        1.1394448831
