155

 C        -7.0199731587        1.6540230722        4.4787016440
 C        -5.8238163289        0.9567733366        3.8637935603
 C        -5.8032151174       -0.5647073326        3.3267787776
 C        -5.6784912801       -0.4588046794        1.7053824030
 C        -6.7481594015       -0.9100911264        0.6999177265
 C        -4.6110863911       -1.2024565585        3.9290720240
 C        -7.0610718480       -1.3136929965        3.7183649375
 O        -4.7965878682        1.6466581031        3.7777150340
 O        -4.6477550824        0.0285051821        1.2257985114
 C        -7.4022521912        0.0991595345       -0.2634072232
 C        -8.3266135716        1.1712010360        0.5199927275
 C        -8.8747617057        2.3096402377       -0.4273123911
 C        -7.6972610476        3.1513722303       -0.9592027680
 C        -7.1063725567        4.3493420308       -0.0087258230
 O        -8.5438408791        1.0197943682        1.6789771170
 O        -7.2377695274        2.9019761229       -2.0583975163
 C        -9.7314727264        1.6710315672       -1.5999740871
 C        -9.7980989244        3.1394158471        0.4317270364
 C        -5.7126365640        4.7798556492       -0.6047525223
 C        -4.4624193693        4.0869621418        0.0917505937
 C        -3.0538981756        4.9027189269       -0.1508042939
 C        -1.8623832002        3.8996938042        0.0846642198
 C        -0.7720134313        3.5021051451       -0.9116404449
 C        -3.1031662780        5.6830488008       -1.4969016723
 C        -3.0161809974        5.8658648375        1.0803214845
 O        -4.6215747338        3.2169816232        0.8990174922
 O        -1.8347548975        3.4403623311        1.2291930175
 C        -0.2375385119        2.0806260206       -0.8431479791
 C        -1.2124619406        0.9044904998       -0.4547493578
 C        -0.6270501069       -0.4689263005       -0.1062034782
 C        -0.1779903161       -0.1610231106        1.4387904881
 C         1.1636186394       -0.6234246784        1.9074040658
 O        -2.4324028072        1.0644795639       -0.4112127395
 O        -0.9730802299        0.3151894110        2.2343346298
 C        -1.8310394963       -1.3884976860        0.0676678921
 C         0.4720957386       -0.9042625392       -0.9544024819
 C         1.3884127890       -0.8046586583        3.3735350240
 C         0.5616931800       -2.1204585110        3.9565301703
 C         1.2982418317       -2.9903816368        5.2235296880
 C         2.6198089500       -3.3127639712        4.5395070300
 C         2.8075004684       -4.6582472245        3.8255339682
 C         1.2622753883       -1.9264335470        6.3686724776
 C         0.4720955598       -4.2702487370        5.5927846674
 O        -0.4657522731       -2.3834800577        3.3608618950
 O         3.5451168933       -2.5079760185        4.6061340516
 C         4.2110147289       -4.6711356564        3.1604607233
 C         4.0611706888       -4.7223844186        1.5718571478
 C         5.4260049206       -4.5577012537        0.7381187674
 C         5.3139197253       -3.0033606246        0.3543876642
 C         4.9259709918       -2.6920004582       -1.0604814356
 O         3.0115559555       -4.7785779103        1.0261501900
 O         5.5611921800       -2.1269774647        1.1451456263
 C         6.6668504242       -4.7014353751        1.6865714276
 C         5.5053077199       -5.6108473055       -0.3795390820
 C         4.3900083459       -1.2560902915       -1.2116991582
 C         5.4425656271       -0.0882391269       -1.5698927283
 C         4.9541603565        1.4227417477       -1.8056778442
 C         3.9484009198        1.4474627968       -2.9601944610
 C         4.4550566752        1.3560503084       -4.4480060646
 C         4.3890597233        2.0641741252       -0.5251458486
 C         6.2138197720        2.2072670618       -2.2062710034
 O         6.6192161929       -0.3656869892       -1.5238008724
 O         2.7828002184        1.4706597839       -2.7393315613
 C         3.4933735830        0.5576441760       -5.2764349166
 C         3.7521521485        0.6473840068       -6.7578538206
 C         2.6462525393        0.2957472908       -7.8427122077
 C         2.6998539686       -1.2453095102       -8.1401491439
 C         2.9894202656       -1.9290926276       -9.4981980994
 O         4.8301767893        1.0285171153       -7.1462205873
 O         2.4489433063       -1.9259745478       -7.1873577347
 C         1.1673328721        0.7548245640       -7.3068423969
 C         2.8627935830        1.0212115134       -9.1786012601
 H        -6.7269015957        2.5688908086        4.9606140008
 H        -7.6530943930        1.9547595607        3.7149116777
 H        -7.6246259186        1.0645427997        5.1308395265
 H        -6.1440976320       -1.7068677561        0.1896595027
 H        -7.4556012412       -1.4424134694        1.2699634162
 H        -4.8408693339       -2.2266746107        4.2224581007
 H        -4.1588262558       -0.5657392619        4.7244880342
 H        -3.7791568033       -1.2842495758        3.1777759809
 H        -8.0553679450       -0.8150714198        3.7231428246
 H        -7.0952997352       -2.2197350632        3.2411655048
 H        -7.1276846950       -1.6878806126        4.7285773026
 H        -6.5770245697        0.6134187911       -0.7432925526
 H        -7.9853505834       -0.4405701640       -1.0888193603
 H        -7.8130055487        5.1888101809        0.0193169616
 H        -7.0560822715        3.9276067280        1.0023981230
 H        -9.0601162545        1.3414008028       -2.4350843836
 H       -10.3933938292        2.3656899306       -1.9011068996
 H       -10.3464975152        0.8456044090       -1.2974966845
 H       -10.4863842271        2.4887658680        0.9785769662
 H        -9.2210719811        3.7008286727        1.1498770623
 H       -10.3720501568        3.8663797970       -0.0935853683
 H        -5.5880283880        5.8760849095       -0.4052679078
 H        -5.6827252257        4.5867233459       -1.7249904188
 H        -1.3207950601        3.6035740913       -1.8952128022
 H        -0.0005089417        4.3014675095       -0.8852234604
 H        -3.0124171847        4.9470276097       -2.3784712728
 H        -2.1687188658        6.3045792015       -1.3811395889
 H        -4.0288068837        6.2675301590       -1.7098677201
 H        -3.7867033924        6.5944120969        0.9005099302
 H        -3.0725870191        5.4236591613        2.0915136917
 H        -2.0773075057        6.3773022549        1.1054807188
 H         0.0182566646        1.8671403815       -1.8783783246
 H         0.7004643755        1.9772842454       -0.2478294026
 H         1.3991902496       -1.5772757317        1.3495531146
 H         1.8532585016        0.0669146003        1.4357643838
 H        -2.1365057405       -1.6497394215       -0.8785812701
 H        -2.6463655363       -1.0379030677        0.5488263426
 H        -1.4913172559       -2.2752638544        0.5698228448
 H         0.7742002972       -1.8737887913       -0.7530961969
 H         0.1389044170       -0.8429148495       -1.9760242569
 H         1.2632549305       -0.1507333796       -0.7384613285
 H         1.0110223790        0.1486896306        3.8466148132
 H         2.4683923913       -0.9872189055        3.4843821534
 H         2.7704817443       -5.4217670827        4.5903737677
 H         1.8951406189       -4.8278471253        3.1250145245
 H         0.2535186289       -1.6858318915        6.6754912438
 H         1.7675744147       -0.9653854925        5.9672669006
 H         1.8946724114       -2.2613626393        7.2007017558
 H         0.3079444732       -4.7830711957        4.6552329650
 H         0.9308457702       -4.9521784121        6.2757911246
 H        -0.4181794982       -4.0466200019        6.2038437825
 H         4.7006933016       -3.6382330146        3.3973357185
 H         4.8051414921       -5.5504072784        3.5227222729
 H         5.5469307175       -2.9621576574       -1.9399974281
 H         4.1016585943       -3.3801001134       -1.3019640161
 H         6.6334725657       -3.9885517572        2.5016933728
 H         7.5552937404       -4.5494144117        1.0878233718
 H         6.8331785542       -5.6962313094        2.0721210193
 H         6.4943253177       -5.6034147838       -0.8067851073
 H         5.2663763871       -6.6782221591       -0.1846341525
 H         4.8652807532       -5.4211538190       -1.2594173434
 H         3.9416462715       -1.0823882683       -0.2664267199
 H         3.5969026309       -1.2604399230       -2.0065353548
 H         4.6193116736        2.3772831231       -4.8683824140
 H         5.4804107069        0.9432685963       -4.4680232709
 H         5.1618383265        2.1945575495        0.1704462467
 H         3.7589825228        1.4478331696       -0.0619810464
 H         3.9446814005        3.0290972848       -0.8021004197
 H         6.0133236349        3.2410495778       -2.3266935024
 H         7.0110878902        2.1209856091       -1.4615219020
 H         6.5440151654        1.8170101665       -3.2482614676
 H         3.5800350239       -0.4759210456       -4.8889108233
 H         2.4678368087        0.8223760674       -5.1159639366
 H         2.8402438378       -3.0290958369       -9.4244298798
 H         2.3508792341       -1.5993705227      -10.2795900416
 H         4.0193293291       -1.7550490297       -9.8618840554
 H         1.2062701424        1.7647112957       -6.9867106640
 H         0.8573460068        0.0143012019       -6.5390545492
 H         0.5881446269        0.6575260009       -8.2262692020
 H         2.4118166535        1.9799460391       -9.2849978435
 H         3.9284950225        1.1813460045       -9.3801573094
 H         2.4840859139        0.4577576215      -10.0779915868
 Na       -3.1183178596        1.4799691441        1.9558199472
