155

 C         0.9351935584      -10.6654137555       -0.3579115706
 C         1.2119980897      -10.6519032812        1.1352573655
 C         1.2492924409       -9.3291199742        2.0516853443
 C         0.4891361548       -8.2584122771        1.3083345206
 C         1.1947264629       -6.9535824939        0.8523091158
 C         0.3398637476       -9.6585177985        3.3465364699
 C         2.7039389134       -9.0601033888        2.5040666604
 O         1.4708140691      -11.6757897182        1.7336245361
 O        -0.6991396431       -8.3825625138        0.9895776941
 C         0.2588890864       -5.6493157126        1.0906600602
 C         0.9255779337       -4.3019738404        1.3348515253
 C         0.0714978890       -3.0485032659        0.9422800235
 C         1.1593804761       -1.8797333223        0.9206920760
 C         2.1524411375       -1.8543980921       -0.2704613096
 O         2.0470951390       -4.0375244285        1.7011934460
 O         1.1635628848       -1.0487810803        1.7382605451
 C        -0.4518864354       -3.2497559409       -0.4628991415
 C        -0.9109366751       -2.6136672170        2.1132478741
 C         3.2084983085       -0.7957261542       -0.1073081268
 C         2.7110008300        0.6148057115       -0.6139661348
 C         3.0070877227        2.0426884153        0.2823357085
 C         3.3353056131        3.0974227660       -0.8130675628
 C         4.8103911527        3.5776892359       -0.9901975527
 C         1.6126396760        2.5302608055        0.8266315768
 C         3.9055626611        1.7853269489        1.3950364911
 O         2.2071796731        0.6108023182       -1.6898875294
 O         2.4566267158        3.5420224786       -1.5332775008
 C         5.2515111667        3.1949105850       -2.3839339477
 C         5.4673534030        1.7187649600       -2.6285087921
 C         5.9682791651        1.2650126578       -3.9726789101
 C         4.8912923545        1.7075171225       -5.0349662853
 C         4.1377969894        0.7206330778       -5.9164248101
 O         5.3585607472        0.9313204977       -1.6884779947
 O         4.3857338572        2.8257133631       -4.9419034771
 C         7.2986112437        2.0548170381       -4.2569595785
 C         6.3172309845       -0.2369599694       -3.8794932867
 C         2.9415241143        1.4066798234       -6.7506905677
 C         1.9569977091        2.0895529383       -5.8052100368
 C         1.0546981389        3.3505691216       -6.2840859334
 C        -0.4234398340        3.1508052599       -5.6639056966
 C        -1.4514806590        4.2624156032       -5.9459175100
 C         1.8899032620        4.5268452122       -5.7581758745
 C         0.9070390064        3.4002242527       -7.8391953163
 O         1.9386965791        1.5982317669       -4.7032760068
 O        -0.6942265904        2.1551911529       -5.0483679689
 C        -2.3785903461        4.3800786742       -4.7508688015
 C        -1.4773813130        4.4384050661       -3.4220301762
 C        -2.3301047748        4.4194664532       -2.0678118167
 C        -2.4176630004        2.8215134609       -1.6715965552
 C        -3.5654048028        2.1465193545       -0.8497519594
 O        -0.2816214439        4.4175844231       -3.4050122574
 O        -1.4064791154        2.2361683590       -2.0325429166
 C        -1.5170871156        5.2473418056       -0.9431127582
 C        -3.7919203225        5.0468553744       -2.1919919748
 C        -3.5614484025        2.6391168119        0.6442704417
 C        -2.8704708686        1.7232023277        1.6645014153
 C        -2.9625698089        1.9064324784        3.2125272536
 C        -4.4434314054        1.5583280364        3.5445310654
 C        -4.8784377956        1.7542841771        5.0514231665
 C        -1.9953845051        0.9467397059        3.9590430163
 C        -2.6661044687        3.3368012705        3.4610744064
 O        -2.2205934278        0.7685370386        1.1986418273
 O        -5.1113432088        0.9788381230        2.7109840614
 C        -6.3416939426        1.4678517511        5.3168760621
 C        -6.5537470525        0.2107857877        6.1589738858
 C        -7.9842621634       -0.3845232093        6.4631905595
 C        -8.6503667495        0.6270202537        7.5351737935
 C        -9.7899713161        0.1583145606        8.4407350515
 O        -5.6789995810       -0.3103829314        6.8256697724
 O        -8.3683301745        1.8273872393        7.5702112365
 C        -9.0157051840       -0.3186007128        5.2623122229
 C        -7.8148203074       -1.7598798973        7.1701785159
 H         0.8981643754      -11.7808563116       -0.7001119181
 H        -0.0153535085      -10.2811730154       -0.6658472043
 H         1.6969355572      -10.2936773448       -1.0463562784
 H         2.1657357096       -6.9029992922        1.2354005024
 H         1.4422361283       -6.9740020155       -0.1831318134
 H        -0.6321549251       -9.3454822324        3.0054285976
 H         0.5779377289       -8.9971417411        4.1935298923
 H         0.3994375352      -10.6802444926        3.6319450886
 H         3.2906772025       -9.1024487887        1.5739673844
 H         2.7459898269       -8.1291972078        3.0925172438
 H         2.8903047106       -9.7851012664        3.2406394730
 H        -0.3962461292       -5.4978041765        0.2579400443
 H        -0.3396909018       -5.8956477743        1.9490487239
 H         2.5009177378       -2.8970981382       -0.3095040294
 H         1.4223245560       -1.7014095595       -1.0571577398
 H        -0.6456586506       -2.3142129800       -1.0470277156
 H        -1.3888523843       -3.7788839122       -0.5231980105
 H         0.2371987505       -3.8813817316       -1.0816919603
 H        -1.7027917928       -3.3804601103        2.2006203967
 H        -0.2855206763       -2.4695809445        2.9740946769
 H        -1.3935838367       -1.7288807309        1.8472877483
 H         3.9988859766       -1.1558795576       -0.6709388138
 H         3.2851959707       -0.7473700682        0.9584060104
 H         4.8545459462        4.6543586948       -0.9324422299
 H         5.4961716577        3.2227535436       -0.2511615297
 H         1.6596338429        3.2599667026        1.6000192730
 H         1.2167139119        1.6030157715        1.2599431686
 H         0.9961136052        2.9229070703        0.0346273908
 H         3.5156663083        1.0019209507        2.0503542426
 H         4.9544156699        1.3741689569        1.1152018632
 H         4.2084997147        2.6284133115        2.0234425250
 H         4.4908848296        3.4629927098       -3.1300417136
 H         6.1754773597        3.7748713941       -2.5853601111
 H         4.6490444586        0.1774939792       -6.6977019468
 H         3.7314989086       -0.0770249413       -5.3471701035
 H         7.6293507946        1.4442691683       -5.1431758526
 H         7.9583741498        2.0007439466       -3.3617306512
 H         7.2197270602        3.1195012629       -4.5344475269
 H         7.1862946272       -0.4776224273       -4.4794257378
 H         6.5172377266       -0.4607066833       -2.8446038269
 H         5.3749319487       -0.7856001695       -4.1668106724
 H         2.3986682003        0.6342643719       -7.3006458370
 H         3.3709395996        2.1539142223       -7.4559578328
 H        -1.1145211083        5.2823336970       -6.0730085438
 H        -1.9938478193        4.1651335140       -6.8782636007
 H         2.7992367161        4.0976900982       -5.4463771301
 H         1.3924657696        5.1312431975       -5.0113395788
 H         2.0847870994        5.3631415341       -6.4843752315
 H         0.2242106898        4.2547209736       -8.0821826085
 H         1.8166171509        3.5155675248       -8.3902492062
 H         0.3293977360        2.5523997204       -8.2068529873
 H        -2.9238908297        5.3396747093       -4.7603804234
 H        -2.9873443889        3.5110468611       -4.6719630982
 H        -4.4551793326        2.5341215610       -1.2943026364
 H        -3.3531767896        1.0626898573       -0.7888961046
 H        -0.4066304615        5.2489108853       -0.9936944359
 H        -1.7635498306        4.8456235205        0.0239159925
 H        -1.7797136001        6.2691701730       -1.0480948330
 H        -4.3810515475        4.9478133955       -1.2464387351
 H        -3.7357854252        6.1220119186       -2.5569694969
 H        -4.2530000663        4.6558321910       -3.0769843636
 H        -4.6590255104        2.7768783738        0.8777507519
 H        -3.2227333079        3.7235437470        0.6984838128
 H        -4.3103753665        1.1185301126        5.7112490089
 H        -4.6106167448        2.7467344404        5.4031914870
 H        -1.9445765844       -0.0514196061        3.5410458131
 H        -2.4096862179        0.7972132563        4.9850710648
 H        -0.9134223749        1.2523161947        4.0773178486
 H        -2.6791803101        3.5070891969        4.5794368878
 H        -1.7227945523        3.5482704475        3.0071552973
 H        -3.3947309029        4.0648065442        3.0458357727
 H        -6.8011552764        2.2408294478        5.8870306022
 H        -6.8261125427        1.4156157179        4.2954377419
 H        -9.3882427861        0.0422179613        9.4659876609
 H       -10.5680158268        0.8878335228        8.4056040458
 H       -10.2661281433       -0.8018916568        8.0816993227
 H        -9.1056950377        0.7638185712        5.0252442971
 H        -9.9593503237       -0.6861705420        5.6598564855
 H        -8.6982261494       -0.8671122690        4.3951049247
 H        -8.8272596128       -2.1067530877        7.2535380449
 H        -7.2155275460       -2.4338979509        6.5267372028
 H        -7.5104083251       -1.5376915385        8.1759078500
 Na        0.6910415069        2.2573788558       -2.8858520621
