155

 C        -7.4901651718       -0.8953676690        4.3005344919
 C        -6.3867428771       -1.0613218597        3.3540821431
 C        -6.5712529445       -1.9311760332        1.9446465771
 C        -6.9108810390       -0.9007062767        0.8842175378
 C        -8.1831488212       -0.9838324782        0.1074286743
 C        -5.2402183472       -2.6233787049        1.6775370180
 C        -7.6274451403       -3.0189105514        2.1155325939
 O        -5.3370385666       -0.4473685500        3.5461327875
 O        -6.1051352354        0.0320018773        0.7882118821
 C        -8.0895240867       -0.1089981276       -1.1578621136
 C        -8.2960277652        1.4776835933       -0.9447946717
 C        -7.9364166744        2.5494540117       -1.9321939795
 C        -6.8659626244        3.3540175318       -1.0041167051
 C        -7.3997224884        4.3448764634       -0.0626873021
 O        -8.8872086956        1.8195449891        0.0603682430
 O        -5.6825496590        3.1960468267       -1.2350573862
 C        -7.1936883528        1.8887181355       -3.1796725872
 C        -9.0578093442        3.5319940765       -2.3631857762
 C        -6.2217851363        4.9929822534        0.5925839047
 C        -5.3799809454        3.8495025951        1.2873220696
 C        -3.9570060903        4.2561160446        1.8747939504
 C        -2.8639455564        3.2844895766        1.1475647583
 C        -2.6356077780        3.3673078308       -0.3347413344
 C        -3.3368486647        5.7008517190        1.4613987233
 C        -4.0579040272        4.0793026574        3.4208651223
 O        -5.8699097765        2.7655213699        1.5226412770
 O        -2.1964937108        2.4813170121        1.7875873922
 C        -1.5673425385        2.2867787195       -0.6918047441
 C        -2.2677124140        0.8184111573       -0.5302355143
 C        -1.4107799830       -0.4755248849       -0.4979496955
 C        -1.1092340618       -0.9393209498        1.0361709375
 C         0.2453976126       -1.5398979471        1.4222800211
 O        -3.4954679613        0.8333481113       -0.3832692516
 O        -1.9680775103       -0.6727879134        1.9089248828
 C        -2.1727898719       -1.6237827738       -1.2331010205
 C        -0.0761989302       -0.1971007184       -1.3139003776
 C         0.5306891291       -1.5702540049        2.9383296368
 C         0.1172005305       -2.8605073345        3.5640334160
 C         0.8951752005       -3.6681109350        4.7133461936
 C         2.4272881231       -3.7551630068        4.4635111546
 C         2.8072199548       -4.5215531774        3.1614300580
 C         0.7664005123       -2.8920476445        6.0140750465
 C         0.2302992619       -5.0209331797        4.8228624586
 O        -0.9755300699       -3.3301142908        3.2567363595
 O         3.1932204017       -3.2411647334        5.2815870825
 C         4.2518983571       -4.1824686876        2.7132343600
 C         4.4416205788       -2.7371896704        2.2337488870
 C         5.8312124790       -2.0241228297        2.2202558145
 C         5.7718962715       -0.8442863551        1.2206891107
 C         5.6985502679       -1.2056731307       -0.3227696752
 O         3.4327059094       -2.1123105446        2.0031348380
 O         5.6648051417        0.3185042927        1.5924729286
 C         6.0433370918       -1.3241984937        3.7036227269
 C         7.0548217053       -2.9713297980        1.8814375834
 C         4.9766636792       -0.0277330999       -0.9764503476
 C         5.8881771097        0.9544944666       -1.7254405490
 C         5.3118508372        2.3064600608       -2.2483029150
 C         4.2232956215        1.8898022080       -3.4363941287
 C         4.8135924606        1.6561523816       -4.8276027564
 C         4.4474432445        3.0142467600       -1.1471673758
 C         6.4027614605        3.2746320312       -2.8243056523
 O         7.0517743455        0.6786584344       -1.9944557162
 O         3.0852275185        1.5711707283       -3.1623304845
 C         3.7338757699        1.1899007991       -5.8461697597
 C         4.3433481573        0.8421419424       -7.2610489571
 C         4.6876807902       -0.7270203306       -7.6007454349
 C         5.5347034307       -1.4030159585       -6.4626166349
 C         7.0539588775       -1.7197728104       -6.5328282601
 O         4.4586712378        1.6274619115       -8.1489027283
 O         4.9027262032       -1.6643055917       -5.4078087493
 C         3.3781726408       -1.4569726092       -7.7116266539
 C         5.4952925019       -0.6358884883       -8.9396846859
 H        -7.4671135362       -1.8132685530        4.8785491282
 H        -7.5705783167       -0.0010528217        4.8556642175
 H        -8.3800646618       -0.9132274434        3.7052845541
 H        -8.5315045720       -1.9637401626        0.0281010448
 H        -8.9782960890       -0.5420249089        0.7604746609
 H        -5.3265734011       -3.1725261357        0.6706567017
 H        -5.1317687673       -3.3978680607        2.4736216122
 H        -4.3492154287       -2.0205571788        1.5889060422
 H        -8.6496465675       -2.5754298905        2.1560658548
 H        -7.6160151575       -3.6713072872        1.1580492423
 H        -7.3827988459       -3.6376902994        2.9279029000
 H        -7.1083085375       -0.3345209174       -1.6329568298
 H        -8.9130071534       -0.3962220482       -1.8487636462
 H        -7.9993138299        5.1193604161       -0.5986040930
 H        -8.0001348108        3.7569191127        0.6372906892
 H        -6.0488749116        1.8562903245       -2.9990414483
 H        -7.1781018650        2.5276508343       -3.9924318363
 H        -7.6230217684        0.9650984062       -3.5698376453
 H        -9.8052444415        3.0185215076       -2.9872580555
 H        -9.5616858134        3.8777997219       -1.4920200531
 H        -8.6486465678        4.3837913411       -2.8438581758
 H        -6.5120366320        5.6329983328        1.4562362617
 H        -5.5690336486        5.4230688234       -0.1201860897
 H        -3.5457673173        3.2382083734       -0.8987594778
 H        -2.2438490522        4.3524905528       -0.5665709668
 H        -3.3576470329        5.5590262335        0.3853642250
 H        -2.2981132878        5.7230307696        1.7361947873
 H        -3.9364206216        6.5216876126        1.7916801297
 H        -4.9338429349        4.6209674973        3.7124720231
 H        -4.0861487903        3.0345029421        3.7041669823
 H        -3.2212304063        4.5868837452        3.8374685027
 H        -1.0759319246        2.3019747149       -1.6813727441
 H        -0.8010233968        2.3575656760        0.0561073655
 H         0.4422388720       -2.4685795818        0.9191109154
 H         0.9271862304       -0.6990980794        1.0421815547
 H        -1.4468677496       -2.2726152401       -1.7459988183
 H        -2.8475020778       -1.1712346572       -1.9197882538
 H        -2.7952944608       -2.0479678477       -0.3641209345
 H         0.4584696549       -1.1327890576       -1.4867024139
 H        -0.2925656737        0.2899891132       -2.2668321574
 H         0.5669763910        0.3994726596       -0.7412300948
 H        -0.0796386115       -0.7675274262        3.3643121240
 H         1.6128714555       -1.5041559196        3.0606874776
 H         2.7494076988       -5.5813770974        3.3612947013
 H         1.9947403382       -4.3494810371        2.4785954373
 H        -0.2236034511       -3.0541830407        6.4936127722
 H         0.8938308340       -1.8489946784        5.9011975487
 H         1.5462462414       -3.2380631376        6.7310465036
 H         0.2409856180       -5.6353358261        3.9375457479
 H         0.7162803374       -5.5857151661        5.5890715331
 H        -0.8514361540       -4.8720647878        5.0050835825
 H         4.9307080044       -4.4822446820        3.4806081411
 H         4.4878882217       -4.8440348892        1.8513732940
 H         6.7039069120       -1.3672718911       -0.6924257064
 H         5.1690464871       -2.1329875016       -0.4696499722
 H         5.4877628760       -0.4599646882        3.8241644217
 H         7.0984185638       -1.0763561112        3.7711137491
 H         5.7438269759       -1.9922238397        4.4668120398
 H         7.9309533814       -2.3584871404        1.7935806180
 H         7.1794221869       -3.7019069312        2.6619949070
 H         6.7750090165       -3.4214325854        0.9162957756
 H         4.4913651511        0.6599944677       -0.2192465969
 H         4.2645089069       -0.4975999866       -1.5616450584
 H         5.3752300416        2.4607900452       -5.2484231641
 H         5.4756694656        0.8337321583       -4.6952424997
 H         4.9835393098        3.1258919856       -0.1176107091
 H         3.5279162391        2.4941963826       -0.9820287709
 H         4.2599472043        4.1263492200       -1.4142113553
 H         6.1200590356        4.1564583515       -3.3317667867
 H         7.2890854444        3.3930472455       -2.1237022469
 H         6.8427883641        2.7216224257       -3.6720193928
 H         3.3634186452        0.2290403612       -5.4522691592
 H         2.9518975220        1.9777811296       -5.8612795855
 H         7.3129121320       -1.9926191742       -7.5281114473
 H         7.4777146247       -0.7473932264       -6.2968890920
 H         7.5169878767       -2.4958659140       -5.8864119106
 H         2.5367735688       -0.9156081876       -8.1470001922
 H         3.0645488505       -1.8300206032       -6.7707544138
 H         3.4298891282       -2.4884823715       -8.2939137480
 H         4.8701096000       -0.6609711869       -9.8018804883
 H         6.0671435386        0.3339233195       -8.8842736061
 H         6.1858564932       -1.4434696180       -8.9541514485
 Na       -4.1206054589        0.7341645507        2.0074858106
