155

 C        -7.8895246537       -1.0444451243        4.1562103227
 C        -6.4907494550       -1.1868469665        3.3450318756
 C        -6.6063086975       -1.9347635527        1.9842774076
 C        -6.8645224080       -0.8556089132        0.9069648331
 C        -8.1900311770       -0.8834198732        0.0728232108
 C        -5.2773235403       -2.5051291702        1.5359727444
 C        -7.6158479236       -3.0333192223        2.1202560562
 O        -5.5144239457       -0.5493085544        3.6496401656
 O        -6.0791147781        0.0370901751        0.6679673701
 C        -8.0873950843       -0.0601440853       -1.1837986624
 C        -8.3658655656        1.3724257480       -0.8222567639
 C        -7.8477034093        2.4828289858       -1.9341028819
 C        -6.8903853258        3.5286224290       -1.2150275742
 C        -7.4488010159        4.4046835337       -0.0837866909
 O        -8.9094596944        1.7648958499        0.1704802788
 O        -5.6724558556        3.4735315366       -1.2997285994
 C        -7.0278416857        1.9562790639       -3.1085157807
 C        -9.2077968795        3.0852650688       -2.5264039259
 C        -6.3083228657        5.1255505860        0.7017857067
 C        -5.3750859039        3.9442152319        1.3100565879
 C        -3.9132822435        4.3070480279        1.9035580030
 C        -2.8963635734        3.1782561428        1.2596364640
 C        -2.4102255728        3.2241584078       -0.2217968605
 C        -3.5075612945        5.8340899926        1.7147266292
 C        -3.9622009350        3.8033212550        3.3673759067
 O        -5.9239972910        2.9285105819        1.6514014455
 O        -2.4697495670        2.3020500987        1.9744301686
 C        -1.4983147579        2.1319985692       -0.7415357597
 C        -2.0865553729        0.7771473721       -0.6071204866
 C        -1.1867105408       -0.4696868140       -0.5281188074
 C        -1.0782496434       -0.8491778265        1.0006536726
 C         0.1607609760       -1.6852065740        1.3941358321
 O        -3.2607583644        0.6068687245       -0.3924577618
 O        -1.9217645575       -0.4543903944        1.7190055250
 C        -2.1492807270       -1.6685595402       -1.1877087173
 C         0.1461132907       -0.4305278187       -1.3350037049
 C         0.3716532006       -1.7680690885        2.8810093328
 C        -0.1110320215       -3.0834609741        3.4726269248
 C         0.8048965924       -3.6920277001        4.6872116268
 C         2.3566943289       -3.7199841473        4.3653911257
 C         2.9554516549       -4.4753121463        3.1288435524
 C         0.4689333093       -2.7827646605        5.9473653948
 C         0.4744402816       -5.1967140390        4.9459719419
 O        -1.0315426406       -3.6599621924        3.0011839405
 O         3.1843599188       -3.2347735374        5.0910801461
 C         4.3391289178       -4.0368369099        2.8146262006
 C         4.4159584459       -2.6024280287        2.3423102361
 C         5.7425816946       -1.8671823777        2.4089547057
 C         5.6163802494       -0.5747133168        1.4369209294
 C         5.6154169352       -0.9376446513       -0.0448046375
 O         3.4052360221       -1.9832350831        1.9977983904
 O         5.8264090485        0.5193948400        1.8594872358
 C         6.0818297489       -1.4538593055        3.8836495308
 C         6.9073769472       -2.9107919845        1.9903764900
 C         4.9457384745        0.1065187163       -0.9423464046
 C         5.9068453548        1.0210092024       -1.6944016843
 C         5.3516020631        2.3057446539       -2.3865538907
 C         4.3639119659        1.8204754700       -3.5261260100
 C         4.8689606825        1.8463873766       -5.0291261062
 C         4.3907360508        3.0684409561       -1.3473916901
 C         6.5156644096        3.2989018163       -2.7370041934
 O         7.0485082651        0.7336153109       -1.9158616571
 O         3.2181158877        1.3722378303       -3.3481694356
 C         3.7294243286        1.2604707729       -5.9630489980
 C         4.3464400870        0.8167113644       -7.3472600118
 C         4.7124801196       -0.7151969933       -7.5480604328
 C         5.6378896750       -1.3150721748       -6.3845122615
 C         7.1885546573       -1.4689015092       -6.6028604570
 O         4.5185156645        1.6323308697       -8.2501169749
 O         5.1936591983       -1.4878153253       -5.3197233579
 C         3.4035942213       -1.5941878691       -7.5929718849
 C         5.3861859749       -0.8785506136       -8.9382547732
 H        -8.4399272268       -1.9280132752        4.5655627817
 H        -7.5107125554       -0.3620816154        4.9900216280
 H        -8.6047581348       -0.3484456732        3.6427035379
 H        -8.4360693917       -1.9844533982       -0.0820834592
 H        -9.0400263119       -0.6050286370        0.6462154566
 H        -5.1812674121       -2.8609488609        0.5576333902
 H        -4.9760234329       -3.3334546986        2.1962760108
 H        -4.5561606133       -1.7082809922        1.6758808231
 H        -8.5604006465       -2.6354134750        2.4781558186
 H        -7.8545691935       -3.5630425860        1.2864375926
 H        -7.0789141134       -3.7737839616        2.7951997363
 H        -7.0867701686       -0.1741747910       -1.5187354566
 H        -8.7757796961       -0.3159425416       -1.9754424758
 H        -8.0885828782        5.1632483312       -0.5297504943
 H        -7.9895662968        3.7420959079        0.6309027201
 H        -6.2339852300        1.3828885356       -2.8346684527
 H        -6.6063876210        2.7411204344       -3.7991342361
 H        -7.6865962420        1.3968376374       -3.6877463766
 H        -9.7916417351        2.2083600269       -2.8641502898
 H        -9.9449539965        3.5923181146       -1.8290264813
 H        -8.9449685247        3.7977931702       -3.3445103143
 H        -6.7429217910        5.5251819079        1.6021908706
 H        -5.6513103597        5.8568697279        0.1667742657
 H        -3.2024761228        3.3125105434       -0.9879935096
 H        -1.7646253790        4.1062664339       -0.3212034452
 H        -3.9280334340        6.3230931514        0.8183786963
 H        -2.3982839363        5.7601034275        1.7143701451
 H        -3.9735240968        6.2895961467        2.6126044705
 H        -4.6338099306        4.3625692575        4.0071710362
 H        -4.3859506752        2.7990584105        3.1490624234
 H        -2.9790838773        3.7817897493        3.8289859755
 H        -1.2718132077        2.2734496666       -1.7814693712
 H        -0.5399216614        2.0287879631       -0.1637506560
 H         0.0599702244       -2.7354414682        0.9621750583
 H         0.9800544529       -1.2354907219        0.8536124922
 H        -1.4249477098       -2.4821854516       -1.3806669496
 H        -2.4568242535       -1.3012468069       -2.2044909874
 H        -2.9646435846       -1.8325983047       -0.5192269136
 H         0.6594595164       -1.3497295172       -1.2404659477
 H        -0.1435066664       -0.3872005807       -2.3528888563
 H         0.8253280264        0.3840507156       -0.9722902427
 H         0.0122089785       -0.8775486818        3.4270441206
 H         1.4490496921       -1.9584367281        2.9889198864
 H         2.8982560391       -5.5403336216        3.3742569575
 H         2.2337251942       -4.4364947584        2.3345900098
 H        -0.5675785468       -2.7692581954        5.9732288433
 H         0.7789082301       -1.7061319848        5.7958420206
 H         0.7530285352       -3.2063037106        6.9119615314
 H         0.1830984205       -5.7479071102        4.0308810063
 H         1.2948624957       -5.7359042023        5.4200482864
 H        -0.4433278550       -5.2325039616        5.4290977979
 H         4.8942629154       -4.0851524910        3.7782871144
 H         4.8768233647       -4.6991028545        2.1825792666
 H         6.6796007373       -0.9968386498       -0.3374523468
 H         5.2225861302       -1.9654635765       -0.1007438441
 H         5.3570494452       -0.6756945956        4.1936525844
 H         7.0454648937       -0.9863685254        4.0488306756
 H         5.8621383375       -2.3393294656        4.5226537224
 H         7.8950733415       -2.4032296128        2.0622613453
 H         6.8761453964       -3.6707163079        2.7979781151
 H         6.7091078492       -3.3192301202        0.9981291648
 H         4.3448546456        0.7488183380       -0.3205311533
 H         4.3643437924       -0.5120364446       -1.7429162959
 H         5.1796342547        2.8493212621       -5.3815575835
 H         5.6853715579        1.1255718754       -5.2507498268
 H         4.8211573786        3.1743997974       -0.4270316829
 H         3.3839962659        2.5192511530       -1.2699346769
 H         4.1342754422        4.0284181192       -1.6517624038
 H         6.0567836487        4.1665092833       -3.2655299637
 H         7.0415180089        3.5197028162       -1.8787951044
 H         7.2887833912        3.0015009856       -3.4739623305
 H         3.3704291631        0.3802407696       -5.4490170276
 H         2.9899763958        2.0211098124       -6.1182129985
 H         7.5147284359       -1.6932699531       -7.6423622272
 H         7.7544148475       -0.6635802783       -6.1473939031
 H         7.4211632194       -2.3931743558       -6.1271376206
 H         2.4933712833       -0.9876053472       -7.7548330830
 H         3.3056535951       -2.2077803033       -6.6828606834
 H         3.1534224447       -2.2286605427       -8.3699362279
 H         4.8890333024       -0.1174131262       -9.5899165900
 H         6.4119603487       -0.5522248819       -8.8828001080
 H         5.3100541608       -1.9550437645       -9.3228441855
 Na       -4.2132981954        0.7735122909        1.9079706035
