155

 C        -7.7695818858       -1.2589951489        4.2983020062
 C        -6.8249933364       -0.9254091117        3.0811453105
 C        -6.7563408092       -2.0356015674        1.7711570228
 C        -6.9476694843       -1.0860790180        0.4737456439
 C        -8.2472541410       -1.0999856400       -0.2023856800
 C        -5.4111682382       -2.6895615923        1.6537911221
 C        -7.7876797319       -3.0805207035        1.9735812791
 O        -6.0182514413       -0.0469080826        3.1104979845
 O        -6.0159180246       -0.4407614551        0.1371940079
 C        -8.2056717678       -0.2480193175       -1.4557360270
 C        -8.1884278930        1.2403013225       -1.0606872390
 C        -7.7442599990        2.4282612580       -1.9343224061
 C        -6.8790727522        3.4223632344       -1.1440778819
 C        -7.4129687349        4.0337019407        0.2602583297
 O        -8.6851482623        1.5541377769        0.0655585028
 O        -5.8305216265        3.8988144149       -1.5637719385
 C        -6.9206231190        1.9036247960       -3.0810438575
 C        -9.0500544679        3.2609842380       -2.4206560275
 C        -6.1820862984        4.6281904791        0.9661518302
 C        -5.2247267310        3.7095571348        1.4940074507
 C        -3.8478482344        4.2066921546        2.1626490966
 C        -2.7113963054        3.2390371599        1.6354624751
 C        -2.3631065606        3.3710890826        0.1197886312
 C        -3.3307309344        5.6197615935        1.7432353308
 C        -3.9727477930        4.2460153569        3.7088248961
 O        -5.4325134841        2.5219106181        1.4278558499
 O        -2.3078223836        2.2471201459        2.1962213044
 C        -1.5112336081        2.1542138140       -0.3845733004
 C        -2.2834191471        0.9085194844       -0.6039084873
 C        -1.3996341165       -0.4387081745       -0.5370504908
 C        -1.4266257085       -1.0497011086        0.9418678883
 C        -0.2495874195       -1.9834262581        1.5448720149
 O        -3.4758673867        0.8438432436       -0.6477720410
 O        -2.3738948436       -0.8894992501        1.6763562335
 C        -1.9938188003       -1.6302682519       -1.4476776146
 C         0.1659000837       -0.4125059882       -1.0100088048
 C        -0.2487313432       -2.1846831006        2.9747711019
 C        -0.0558009318       -3.6829274887        3.2222471373
 C         0.6429384746       -4.0282442773        4.6533693361
 C         2.1131821961       -3.5793703063        4.4534661856
 C         2.8776040711       -4.2896566737        3.3172243302
 C        -0.0607295708       -3.2084000475        5.7559709292
 C         0.5722154591       -5.5650777277        4.9246141706
 O        -0.0791584120       -4.4757730412        2.2826821157
 O         2.5530445517       -2.6687217619        5.0935988049
 C         4.3028161465       -3.7840162519        3.1663061627
 C         4.3134915693       -2.3707830030        2.5872540268
 C         5.6167565274       -1.5439237423        2.7229805844
 C         5.5277667870       -0.2552635993        1.8097154907
 C         5.4564442405       -0.2973668069        0.2240230082
 O         3.3697040440       -1.9652848079        1.9033408219
 O         5.7009904158        0.7561378615        2.4320123234
 C         5.7018021856       -1.1902368059        4.2396502032
 C         6.8545715119       -2.3766472919        2.3156568550
 C         5.0745907445        1.0453527061       -0.3847587335
 C         5.9616208392        1.3901292049       -1.6182945603
 C         5.3613275730        2.4971296224       -2.6799553042
 C         4.4763215732        1.6990394139       -3.6929820475
 C         4.9219072531        1.8281624589       -5.1419212697
 C         4.3871275729        3.5019958702       -1.8977533230
 C         6.5140840095        3.2816486179       -3.2775347590
 O         7.0184111911        0.8981131940       -1.7751712092
 O         3.5136650061        1.0818003168       -3.2945192205
 C         3.8477662183        1.3549491204       -6.2225165672
 C         4.5724490524        0.7576833520       -7.3930863995
 C         4.8112743818       -0.7939605894       -7.4681563660
 C         6.0338462619       -0.9856031695       -6.4648599650
 C         7.4434043315       -0.7724971843       -6.9845124030
 O         5.0841001071        1.4855111864       -8.2248044545
 O         5.8388377367       -1.3865901085       -5.3291323214
 C         3.7380897405       -1.6997775084       -6.9685079402
 C         5.2004105135       -1.1923677634       -8.8381253556
 H        -7.2985291823       -2.0682320210        4.8874461395
 H        -7.6756286874       -0.3678948768        4.9325746155
 H        -8.7973988446       -1.5921915694        3.9902239862
 H        -8.5784771248       -2.0952017358       -0.4314937682
 H        -9.0344417805       -0.7594767292        0.5807075364
 H        -5.4597143906       -3.5206797548        0.9483970381
 H        -5.0093828204       -3.0919166796        2.5217541187
 H        -4.5891096954       -2.0339476531        1.2317586123
 H        -8.7456204817       -2.6343456201        1.9952737664
 H        -7.8022590152       -3.8605401106        1.1631504491
 H        -7.8653224096       -3.5923241118        2.9618090252
 H        -7.2371030867       -0.5232525153       -1.9615037859
 H        -9.0036482923       -0.5236693419       -2.1116419567
 H        -8.1587169947        4.8072502946        0.1530189464
 H        -7.7956494449        3.2279261878        0.8431300321
 H        -6.4500596897        0.9721563789       -2.9286730572
 H        -6.2247477206        2.8073218981       -3.3807617248
 H        -7.6490670870        1.6772434544       -3.9383592858
 H        -9.6826655126        2.7549151583       -3.1458321603
 H        -9.6559790020        3.4060679834       -1.5032486086
 H        -8.7968188498        4.2874799168       -2.9044937492
 H        -6.2657202207        5.4115794932        1.7641759672
 H        -5.5776510658        5.1903908702        0.2543059217
 H        -3.3243671887        3.3238797577       -0.4547684663
 H        -1.7147030992        4.2461766423       -0.1416293322
 H        -3.6537932557        5.6868346469        0.6887696592
 H        -2.2501555533        5.7194899498        1.9195958223
 H        -3.8453703282        6.4393349439        2.3179405515
 H        -5.0652447766        4.3820819952        3.9455256422
 H        -3.6589481920        3.3446793108        4.1796991236
 H        -3.2982996011        5.0696827311        4.1160706468
 H        -1.0880751599        2.3727244749       -1.4158961447
 H        -0.6983491166        1.9232574806        0.2713500149
 H        -0.2931031916       -2.9064914913        0.9438252085
 H         0.7164687239       -1.5923284743        1.1490087455
 H        -3.0156400596       -1.7071923786       -1.3008857493
 H        -1.3840703371       -2.5087719532       -1.1447836666
 H        -1.8020539351       -1.3019432747       -2.3988168565
 H         0.5816372334       -1.4546944151       -1.0959831719
 H         0.2441311552        0.2384656021       -1.8994540093
 H         0.7125142377        0.1820193892       -0.2987722092
 H        -1.2138930649       -2.0134340766        3.4297014457
 H         0.5739392429       -1.6321912632        3.4410415008
 H         3.0100743771       -5.3970269737        3.5631917095
 H         2.1423534529       -4.2223377832        2.3952677355
 H        -1.0315826860       -3.7634728538        6.0059380290
 H        -0.1948879306       -2.1635476238        5.4412096305
 H         0.5273622021       -3.2452381493        6.6664709841
 H         1.0915037218       -6.0249642231        4.1439491315
 H         0.9950703414       -5.8194846418        5.9146558936
 H        -0.5125760814       -5.8934115185        5.0275868823
 H         4.7981604217       -3.8250968730        4.1435172583
 H         4.9120910569       -4.5280115107        2.5449286420
 H         6.5093580364       -0.5832190863        0.0044027122
 H         4.6923424408       -1.0287179475       -0.0961105466
 H         4.8420882243       -0.4176899876        4.5085525848
 H         6.6693337770       -0.7875505715        4.5950430625
 H         5.5583781496       -2.0866281585        4.8922556813
 H         7.8591418477       -1.9712696944        2.5552467438
 H         6.7044555901       -3.4131873684        2.6926515531
 H         6.7869057835       -2.4995226402        1.2424866656
 H         5.3789025568        1.9178852379        0.2981267839
 H         4.0525935617        1.0487677914       -0.7202114691
 H         5.1856976138        2.8714119902       -5.4402644572
 H         5.9157724968        1.2869227523       -5.1492767893
 H         4.8740586660        3.9562011263       -1.1028892459
 H         3.4993081611        3.0142597837       -1.4463205750
 H         4.1066749643        4.2830391936       -2.5613217887
 H         6.2485284153        4.1849975438       -3.8092678483
 H         7.2004782591        3.7188496036       -2.5184801635
 H         7.0638689922        2.5938734293       -3.8149453323
 H         3.1466820425        0.6868695683       -5.7040596862
 H         3.3673016241        2.2935245142       -6.5401959273
 H         7.9301815604       -1.6983472482       -7.2698279090
 H         7.4986076369       -0.0871124397       -7.8689125889
 H         7.9944939212       -0.3648180544       -6.1407902167
 H         2.7499998010       -1.6090411252       -7.4801176231
 H         3.4052906694       -1.4105636348       -5.8798681251
 H         3.8447837031       -2.7535371995       -6.9629720185
 H         4.1901948148       -1.2999300760       -9.3040447060
 H         5.6614473436       -0.3791456440       -9.3947603596
 H         5.8221872350       -2.0609021079       -8.8472762910
 Na       -4.2502687971        0.4820919816        1.5916921544
