155

 C        -7.6856002483       -1.1747392877        4.2023615756
 C        -6.7802655816       -1.0649881920        2.8547217287
 C        -7.0079193689       -2.1538304473        1.7300274392
 C        -6.8780906282       -1.3445748877        0.3126009753
 C        -7.9723697748       -1.4341224370       -0.6921409172
 C        -5.7539216785       -3.1524198670        1.8178222420
 C        -8.3729838874       -2.9573698868        1.8753667322
 O        -5.8732023813       -0.2027489522        2.8253653131
 O        -5.7915241672       -0.9248843855       -0.0488951500
 C        -7.9215420014       -0.1814126817       -1.5904879190
 C        -8.2141868577        1.2310769073       -1.0579075230
 C        -7.8470430053        2.4638530461       -1.9312897251
 C        -6.8441776140        3.3353107665       -0.9241157189
 C        -7.3843244935        4.0089319937        0.3306768447
 O        -8.8679875276        1.2499027029       -0.0017851653
 O        -5.6610817824        3.4243842639       -1.1342001227
 C        -7.1324247378        2.0787414993       -3.2534477603
 C        -9.1029381623        3.3893297140       -2.0897465080
 C        -6.2695081216        4.7348763407        1.0233852920
 C        -5.2140635562        3.7650769385        1.4395596619
 C        -3.8449209259        4.2084709704        2.0823714768
 C        -2.7089722906        3.3231013805        1.5161649490
 C        -2.1266244568        3.4867633200        0.1642485437
 C        -3.3561759611        5.5948414667        1.8597346711
 C        -4.0229441095        4.1466926716        3.5942478578
 O        -5.4081558823        2.5850705324        1.4504700171
 O        -2.2049522945        2.4880635634        2.2216903650
 C        -1.2074690463        2.2772421558       -0.0314598143
 C        -2.0982645825        1.0726915994       -0.4943133507
 C        -1.4535357757       -0.4838333034       -0.5808482861
 C        -1.7491693513       -1.2089717099        0.8581956801
 C        -0.6475503482       -2.1335121794        1.5746950539
 O        -3.2651581350        1.1949772611       -0.7655722725
 O        -2.8132195266       -1.1723228672        1.4211734163
 C        -2.1898608434       -1.2028369681       -1.7087838096
 C         0.0514465507       -0.5032826136       -0.9285024506
 C        -0.8669965271       -2.6928525032        2.9274239534
 C        -0.0317116820       -3.9552051894        3.1320775141
 C         0.6174681243       -4.3202943017        4.5293462444
 C         2.1215046322       -3.7591845096        4.5348544416
 C         3.2807762244       -4.5251373945        3.7305861443
 C        -0.1154805477       -3.6702760359        5.7129275766
 C         0.6263057547       -5.8518019566        4.6856862534
 O         0.2063622045       -4.6419195390        2.1742486334
 O         2.3704245312       -2.7267940387        5.1534667226
 C         4.4979830735       -3.6073100378        3.4733370616
 C         4.3357991140       -2.2174763836        2.6566074425
 C         5.5259521875       -1.1385633190        2.8140678820
 C         5.2863205330        0.1446115306        1.9196115650
 C         5.4725583393        0.0857464548        0.4762387935
 O         3.3822431206       -1.9294381574        1.9538000609
 O         5.1037828002        1.1987300856        2.4712701876
 C         5.5457979868       -0.7587510747        4.3450211200
 C         6.7941465391       -1.8123315313        2.3833529150
 C         5.0919825525        1.3840885876       -0.1586711556
 C         5.9489299815        1.6778442098       -1.5068991169
 C         5.4337937161        2.7536059824       -2.5377602046
 C         4.5616684960        2.0088534121       -3.5964683623
 C         5.0400807648        1.9311434949       -5.1003400001
 C         4.5997242484        3.8085222440       -1.9113889419
 C         6.7374699196        3.4280888495       -3.1091240750
 O         6.7961503295        0.8725963835       -1.8657915735
 O         3.5136576040        1.4830412738       -3.2037753396
 C         3.9548212406        1.1859968914       -5.9386954707
 C         4.5878137812        0.5722756889       -7.2713860020
 C         4.9361073775       -0.9676677119       -7.3681030403
 C         6.3443037937       -1.1674446744       -6.5523253738
 C         7.4856586760       -0.3933973455       -7.2588295603
 O         5.1048408230        1.2950738337       -8.1103387093
 O         6.5260126967       -1.8806151955       -5.6532067174
 C         3.9050475158       -1.9957866825       -6.8089313319
 C         5.3368996988       -1.2940186060       -8.8382375467
 H        -7.7337561831       -2.2155779145        4.5915397107
 H        -7.2481154846       -0.4442133185        4.9783939978
 H        -8.7387236750       -0.8612018800        4.0045912436
 H        -7.8267098863       -2.3423832095       -1.2224297031
 H        -9.0266395788       -1.4701557230       -0.2588465035
 H        -5.7860559153       -3.9116719067        1.0494337039
 H        -5.6780648073       -3.6373921921        2.7776547782
 H        -4.7716561920       -2.7226712868        1.7304489540
 H        -9.2519670120       -2.3739021093        1.9343560072
 H        -8.6214028701       -3.5896268376        1.0714440282
 H        -8.5106055122       -3.5163371056        2.8662863693
 H        -6.9167602234       -0.1364679767       -2.0463141702
 H        -8.5867730395       -0.2629965205       -2.3794859550
 H        -8.0452439461        4.8304184332        0.0309836864
 H        -7.8892598973        3.3233791705        1.0039295653
 H        -6.1063108213        1.9385313543       -2.9796002479
 H        -7.1997590498        2.9580866182       -3.9617693154
 H        -7.6139825650        1.2225740172       -3.6929856182
 H        -9.9225917768        2.9884470938       -2.6042271225
 H        -9.2539533657        3.8141546559       -1.0980205030
 H        -8.8482475398        4.2905422999       -2.7414447878
 H        -6.5808469237        5.5173341161        1.7330741380
 H        -5.7376865929        5.3838699093        0.3231353176
 H        -2.9166736523        3.4249027140       -0.6354386266
 H        -1.5310599626        4.4322113498        0.0387008046
 H        -3.4464562983        5.8606909488        0.7986701235
 H        -2.2613785362        5.6383675064        2.0477164295
 H        -3.7126978391        6.3213533248        2.6293080599
 H        -4.8430655444        4.8350434580        3.8332013223
 H        -4.1295840199        3.2420940836        4.1167501910
 H        -3.1261991002        4.6497247255        3.9898668653
 H        -0.6028048193        2.4260944798       -0.9680722476
 H        -0.5766028501        1.9644558390        0.7612706260
 H        -0.1594283627       -2.8166560200        0.8937235748
 H         0.1685800868       -1.3783747151        1.5343527545
 H        -1.6343104611       -1.0176805220       -2.6613057666
 H        -3.2681416712       -0.8723357391       -1.7126187420
 H        -2.1425702562       -2.2151928113       -1.3174799028
 H         0.3389997288       -1.5182835870       -1.0832430737
 H         0.2474268710        0.0793762328       -1.7907547028
 H         0.6080970328       -0.0566310046       -0.1112328672
 H        -1.8587628523       -3.0518153609        3.2126637490
 H        -0.5288391491       -1.9326151750        3.6513027107
 H         3.6259037061       -5.2403466415        4.4975641386
 H         2.8811009701       -4.9522912851        2.7283738488
 H        -1.1231998582       -3.6723148379        5.4044241268
 H         0.2625956954       -2.5965069312        5.9001282368
 H         0.0995316198       -4.2208299228        6.6064594144
 H         0.8300480778       -6.2687045180        3.7543539103
 H         1.2867898374       -6.1918553246        5.4886344607
 H        -0.3756940328       -6.0969142287        5.0799571306
 H         4.7187478610       -3.2316540659        4.4433515928
 H         5.3577090312       -4.1694272885        3.0866984032
 H         6.5342888823       -0.0661945304        0.2716563657
 H         4.8893992857       -0.7924287368        0.1390098884
 H         4.5954272952       -0.4972900371        4.7938469055
 H         6.2235501004        0.0628541559        4.5110807040
 H         6.0357821497       -1.5187267065        4.9893326637
 H         7.6955382402       -1.1503366652        2.2869179717
 H         7.0806389706       -2.6408657364        3.0928568472
 H         6.6804420124       -2.3287141897        1.4536107852
 H         5.2950941832        2.2670664507        0.5223353540
 H         4.0762106694        1.4943050738       -0.5276887009
 H         5.1895599273        2.9426879202       -5.5176010298
 H         6.0647748389        1.4982002108       -5.1935565584
 H         5.0816300698        4.2134159514       -1.1252545751
 H         3.7494216645        3.2738738274       -1.3826129252
 H         4.3614739842        4.5820862811       -2.5666660563
 H         6.4869324173        4.2936330628       -3.8487066793
 H         7.2516132702        3.9298545986       -2.2888911885
 H         7.3875471583        2.6479671276       -3.5196160248
 H         3.4881388704        0.4678140425       -5.2680058283
 H         3.1381899400        1.8334617118       -6.1623077726
 H         7.8955979562       -0.8696071796       -8.1441529192
 H         7.1066586878        0.5911828207       -7.6328582094
 H         8.2276258175       -0.1265052689       -6.5506076608
 H         2.8226056069       -1.7677381594       -6.8410239754
 H         3.8992528095       -1.9716425377       -5.6424797953
 H         4.2746982874       -2.9336535306       -6.9977061679
 H         4.4220082250       -1.1039108713       -9.4971506290
 H         6.2855886776       -0.8962465680       -9.0981094569
 H         5.3283161715       -2.4083292705       -8.9410796837
 Na       -4.3540428820        0.5158702840        1.0904989585
