155

 C        -8.3768269928       -0.9539409391        3.5618474940
 C        -7.1283598820       -1.3044879122        2.6039830456
 C        -7.3329556295       -2.3179569528        1.3514685434
 C        -6.9187330604       -1.3993260603        0.1041641549
 C        -7.8667484628       -1.2425094282       -1.1611166472
 C        -6.3688298579       -3.4017704174        1.6320256907
 C        -8.7840403352       -2.8041821591        1.2739250768
 O        -6.0598378128       -0.6945210217        2.8248885001
 O        -5.8339598134       -0.8408133848        0.1823303738
 C        -7.6225648984       -0.0666773101       -2.0431295688
 C        -8.1294972322        1.2104682358       -1.2803448761
 C        -8.2155754099        2.5605827973       -1.9513619596
 C        -7.1760685683        3.5756385007       -1.1793577429
 C        -7.3723167770        3.8876115632        0.3107823727
 O        -8.4658666524        1.0830447007       -0.0473594728
 O        -6.2599617005        4.0176890417       -1.8085405840
 C        -7.7950795019        2.4458468528       -3.5644347957
 C        -9.6078548839        3.2216170347       -1.8233569792
 C        -6.1440515696        4.4266233370        1.1095749869
 C        -5.1225785927        3.3832825272        1.4640020620
 C        -3.8178734906        3.9629361101        2.1256448478
 C        -2.7664829292        2.8525783175        1.9158603066
 C        -1.5464422402        3.1089454176        0.9278156173
 C        -3.4874133651        5.2826349367        1.4903223389
 C        -4.1413741598        3.9629648511        3.6409327505
 O        -5.4032542378        2.1976899352        1.4672312588
 O        -2.8585116080        1.7840218952        2.5075632232
 C        -0.7982367522        1.9566042794        0.5437715814
 C        -1.6624994729        0.9440962806       -0.2331432573
 C        -1.0737426199       -0.4516575972       -0.5421010161
 C        -1.0849972521       -1.4453682783        0.6431101991
 C        -0.0292317494       -2.4838658504        0.9915180999
 O        -2.7400014402        1.1920546483       -0.6632180088
 O        -2.0718339355       -1.4142963105        1.3584797111
 C        -1.9587435661       -1.2669945310       -1.5119340557
 C         0.3852183971       -0.3268338548       -1.1948773195
 C        -0.4028959959       -3.3041877910        2.2771440276
 C         0.5035453245       -4.5222658284        2.6025796526
 C         0.8275340807       -4.7643948221        4.1087076333
 C         1.9126688859       -3.6918080572        4.3764052607
 C         3.2754511812       -4.0098135424        3.8028653083
 C        -0.3784964994       -4.5610118614        5.0340194167
 C         1.3685831095       -6.2724588516        4.2800488316
 O         0.8880394725       -5.1477538658        1.6266289284
 O         1.6012954461       -2.6329121506        4.9126209823
 C         4.2580478711       -2.8632321678        3.9072360125
 C         4.0560852216       -1.7124071033        2.9049604892
 C         4.8612146610       -0.3041363968        3.2638806557
 C         4.5871611306        0.8483951227        2.1728046413
 C         5.2040559003        0.7438388738        0.7225089196
 O         3.1937696098       -1.7460715197        2.0581400954
 O         3.8277608910        1.7171076589        2.4758470576
 C         4.2567277779        0.2026928461        4.6412688002
 C         6.3138098305       -0.5830784947        3.4163812824
 C         4.8917481137        1.8709170701       -0.2165093056
 C         5.7941535889        1.9910821903       -1.3731474380
 C         5.5523627269        3.1643362487       -2.4843321569
 C         4.7959730405        2.3261025658       -3.6000502231
 C         5.5532994633        1.2957902235       -4.4055043451
 C         4.7418039263        4.2813136758       -1.9634573438
 C         6.9599113278        3.6795436437       -3.0662726150
 O         6.7804544057        1.2432424929       -1.5380839547
 O         3.6152948666        2.5493988660       -3.8668358083
 C         4.6701604479        0.0800867228       -4.9281199922
 C         4.8905996780        0.0986330713       -6.4622160715
 C         5.3022823135       -1.2212911445       -7.1840791394
 C         6.9117692413       -1.2236089502       -6.7568841667
 C         7.7499530041       -0.1203590227       -7.4312353303
 O         4.8187414273        1.1320535590       -7.0990543892
 O         7.4274514107       -2.0614742079       -6.1304700421
 C         4.6267074147       -2.5012117652       -6.6116232027
 C         5.0788852196       -1.1205725547       -8.6700445801
 H        -8.7798255248       -1.9458127961        3.7811508541
 H        -8.0017913693       -0.5522799413        4.5371421646
 H        -9.0878996006       -0.2983594295        3.0008210839
 H        -7.7956132024       -2.2641178377       -1.6370463815
 H        -8.7994438334       -1.0088559492       -0.7040392125
 H        -6.2705855361       -4.0677295849        0.7648831195
 H        -6.6042955935       -4.0058588941        2.4376271605
 H        -5.3119628540       -3.0801285583        1.7954900147
 H        -9.4033727003       -1.9943802688        0.9426071193
 H        -8.8574806693       -3.6036470207        0.4546345806
 H        -9.3395033967       -3.0868373655        2.2337657845
 H        -6.6012652688        0.0260622154       -2.2261101566
 H        -8.0717542970       -0.1797043935       -3.0556143677
 H        -8.0267273397        4.7675532984        0.3248871172
 H        -7.9675179918        3.0996978766        0.7315418631
 H        -7.4833939403        1.4463707447       -3.9971709764
 H        -7.0552784185        3.2999349616       -3.6999604357
 H        -8.6781292612        2.6867012160       -4.1629595510
 H       -10.3066824936        3.0242452031       -2.6605133662
 H       -10.1727349912        2.9109459144       -0.9558366674
 H        -9.4266219391        4.3457378508       -1.7731303452
 H        -6.4459946428        4.8432564889        2.0984205757
 H        -5.8054907676        5.2602410911        0.4981747438
 H        -2.0127007310        3.8453273420        0.2593798717
 H        -0.8677527446        3.7854544683        1.4953435648
 H        -3.6804643716        5.2836852987        0.4194618308
 H        -2.6095253702        5.8422320493        1.7598361388
 H        -4.2048764705        6.0464128544        1.8157216356
 H        -4.6874349408        4.7933751283        4.0541823638
 H        -4.7403596947        3.1947780824        3.9228393220
 H        -3.2416129004        3.8403738058        4.2351019676
 H         0.1155895173        2.1799025435        0.0216711348
 H        -0.4002065974        1.4915749875        1.4828161023
 H         0.2584019624       -3.0439517624        0.1021593149
 H         0.8603231264       -1.9233649854        1.3628290533
 H        -1.9143887925       -0.9783678353       -2.5959321258
 H        -3.0303878989       -1.3005852177       -1.1490185424
 H        -1.6258370128       -2.3197707161       -1.4279868465
 H         0.8716102564       -1.2282996760       -1.5023820349
 H         0.3625228477        0.3031612346       -2.0456983903
 H         1.0883621701        0.1625284809       -0.5815749409
 H        -1.4708368851       -3.4620381597        2.3500971969
 H        -0.1946984766       -2.6793823861        3.1557944829
 H         3.6645077862       -4.9055125708        4.3851822112
 H         3.2379514917       -4.3588835556        2.6903973863
 H        -1.1799331082       -5.2691778115        4.8506109535
 H        -0.6019091681       -3.4342670163        4.9732630346
 H        -0.1057700391       -4.7450189535        6.0305877747
 H         2.2315057386       -6.4409899967        3.7154138678
 H         1.6496492227       -6.3833913614        5.3400738705
 H         0.6001772401       -7.0404275608        3.9384878694
 H         4.2428064066       -2.3509967536        4.8646630942
 H         5.2632645949       -3.3009795762        3.8837259092
 H         6.3312904719        0.6634538165        0.8423048939
 H         4.8793647788       -0.2339214444        0.3637931458
 H         3.1839305569        0.0571847971        4.7017448715
 H         4.4023717388        1.2656337335        4.7232031137
 H         4.7228038249       -0.2102199086        5.5633978396
 H         6.8987525656        0.2864971640        3.6642232665
 H         6.5810516155       -1.3127631533        4.1624095924
 H         6.8683986377       -0.9564421486        2.5555106181
 H         5.0542750070        2.8929759992        0.2810921737
 H         3.8564361907        1.8188980387       -0.6409857790
 H         5.9275781135        1.8791763805       -5.2761019483
 H         6.4282647753        1.0133763327       -3.8360089844
 H         5.2353850791        4.5928292505       -1.1389848071
 H         3.6742234916        3.9181589727       -1.6955712103
 H         4.6651712857        5.1179131316       -2.5997180721
 H         6.8429915993        4.1739170400       -4.0605553732
 H         7.4373312081        4.4453025410       -2.3672996565
 H         7.5505010859        2.7886682661       -3.1381680748
 H         4.8671460180       -0.8355300913       -4.4138960292
 H         3.6504605676        0.4131553266       -4.8042971411
 H         7.4320374391       -0.0336952245       -8.4498355610
 H         7.6024771911        0.8853201012       -6.9958297975
 H         8.8023113753       -0.3369201197       -7.4852013623
 H         5.0214700744       -2.9546962339       -5.7122680367
 H         4.6103759740       -3.2721831927       -7.4738495656
 H         3.7205853087       -2.2594982264       -6.1935934311
 H         3.9706562980       -1.1284257707       -8.6782883708
 H         5.1251901282       -0.1053803026       -9.0668232540
 H         5.7228212310       -1.7621338933       -9.2852882975
 Na       -4.2247154388        0.2671900713        1.4238496604
