155

 C         0.0804812866      -10.5972616209       -0.0134549125
 C         0.8955397969      -10.7804848490        1.2665882424
 C         0.8506354709       -9.5413484312        2.2809473103
 C         0.3449478953       -8.1078875282        1.6283360210
 C         1.0855636421       -6.7559716764        1.8981799800
 C        -0.2602730391       -9.8415718970        3.4602758538
 C         2.2097023102       -9.2663446879        2.9758903751
 O         1.5877088705      -11.7546376367        1.4711558929
 O        -0.7223851329       -8.0678788014        0.9549416858
 C         0.1806470495       -5.5346618183        1.7116453290
 C         0.9905079218       -4.3463972361        1.1888593450
 C         0.1307409186       -3.2724417067        0.4460616675
 C         1.0000690737       -1.9971090927        0.3299078078
 C         2.3048216683       -1.9701816533       -0.5842860300
 O         2.2059143527       -4.4019902604        1.1074845343
 O         0.6569594533       -0.9613050211        0.8964135257
 C        -0.3353926041       -4.0389337365       -0.7751701044
 C        -1.1932924006       -2.8084376172        1.2037124330
 C         3.1430336415       -0.7532386486       -0.2150069224
 C         2.3786846169        0.5659022653       -0.5230285044
 C         2.9042536082        1.9879222633        0.1874951867
 C         3.5010468525        2.8458939329       -0.9610635447
 C         5.0200859775        3.0988666622       -1.1180522148
 C         1.5954926267        2.6753990965        0.7119934751
 C         3.8446196112        1.6612631187        1.2832332621
 O         1.6615567194        0.5685018371       -1.4734803195
 O         2.8877459071        3.4734010489       -1.7941327391
 C         5.5428093529        3.1083159456       -2.6685925043
 C         5.7653085432        1.6583303755       -3.0646234683
 C         6.0846691818        1.2266067371       -4.5918376347
 C         4.9671796099        1.8600968029       -5.4490065940
 C         3.9623373258        0.9703906135       -6.1213596347
 O         5.4324019527        0.7746012711       -2.2919858959
 O         4.8603924006        3.0727904060       -5.5368480950
 C         7.4675322553        1.7962242281       -4.9457222050
 C         6.1537118602       -0.3409515013       -4.8158960925
 C         2.8012438498        1.7202977322       -6.7154776575
 C         1.8830150984        2.5417689614       -5.6953898157
 C         1.0156390860        3.7778221393       -6.2480734192
 C        -0.5058079975        3.2879022220       -5.7420259466
 C        -1.6302764359        4.2966329137       -5.8469755555
 C         1.4310196241        5.1031086211       -5.5551323830
 C         0.8725677151        3.8765142559       -7.9129165415
 O         1.9622149168        2.3340622575       -4.5055895489
 O        -0.7694123059        2.1166402989       -5.6155928084
 C        -2.6240981917        4.0539471611       -4.6283001830
 C        -1.7373958766        4.1258395854       -3.3511934517
 C        -2.3799402084        4.2730328839       -1.9702265419
 C        -2.3555735289        2.7381526352       -1.4014127917
 C        -3.5406298018        2.1031995498       -0.7719010529
 O        -0.5152656139        4.1648720461       -3.4719775299
 O        -1.3140145334        2.1216144197       -1.5122012845
 C        -1.4390608686        4.9671933004       -0.7850784490
 C        -3.7637812302        4.8574794277       -1.9242098455
 C        -3.6982526526        2.3793067929        0.7268120152
 C        -2.7020663586        1.8441262280        1.7281213473
 C        -2.7750940241        2.1755934080        3.2878600431
 C        -4.1729916918        1.5732699639        3.8711947229
 C        -4.5380345015        1.3908993061        5.3230963580
 C        -1.7022260814        1.3421662248        4.0067492897
 C        -2.3503013221        3.7226884344        3.4739966916
 O        -1.8192466896        1.0670573778        1.3701755740
 O        -5.0963398579        1.4392537766        3.0724072880
 C        -6.0052426177        1.0553090048        5.5782608566
 C        -6.2732540257       -0.0452638890        6.6683384675
 C        -7.9070785715       -0.3627154057        6.9484975142
 C        -8.5020692603        0.8244816694        7.7853909358
 C        -9.2378895026        0.6396405583        9.1234223405
 O        -5.3469359231       -0.4564948706        7.3495644095
 O        -8.2509494178        1.9327864548        7.3704069093
 C        -8.8549380083       -0.4874065092        5.6781440595
 C        -7.8918030929       -1.7826971806        7.5834408596
 H         0.0858058507      -11.4827708538       -0.6476317866
 H        -1.0109798125      -10.3421057131        0.1852389673
 H         0.4655460769       -9.8086559643       -0.6467675493
 H         1.6370450013       -6.7066118711        2.9081891690
 H         1.8720087643       -6.6297774149        1.1303579125
 H        -1.2692042208       -9.6831046754        3.1174640943
 H         0.0391107395       -9.3078648019        4.3353361839
 H        -0.1233191612      -10.8729267059        3.6405107123
 H         2.7809005799       -8.9089041416        2.1854636017
 H         2.2295093158       -8.4769822980        3.6837485711
 H         2.6101155194      -10.2979777500        3.1972659169
 H        -0.7651028063       -5.7486274333        1.1585211387
 H        -0.2214725009       -5.0419298681        2.6245578126
 H         2.7502551220       -2.8920682857       -0.3547461126
 H         1.9181535788       -2.0292348944       -1.5934094002
 H        -0.7120341089       -3.4199453924       -1.5660602869
 H        -1.2030562574       -4.6194057845       -0.4521030445
 H         0.3187099524       -4.8424285727       -1.2790716765
 H        -2.0576696484       -3.4173181686        0.9837890154
 H        -1.0194300883       -2.8151508007        2.2482933428
 H        -1.3893512531       -1.7956816964        0.8311967506
 H         3.9908811705       -0.7052200666       -0.9809015434
 H         3.2604862344       -0.8900172288        0.8366847839
 H         5.1826345211        4.1322253456       -0.7556672567
 H         5.6417210863        2.4512408417       -0.4949189175
 H         1.8271933119        3.3574780621        1.5484240942
 H         0.8465108382        2.0213095726        0.9473460666
 H         1.2837905600        3.3662728409       -0.1342287435
 H         3.3630759917        1.0735529912        2.0991881336
 H         4.6900106130        1.1073060505        0.9923192859
 H         4.3545743039        2.4178438759        1.8343632125
 H         4.7225076404        3.4256687702       -3.3205378242
 H         6.3126349017        3.8694346158       -2.8853434030
 H         4.3832402565        0.3377943395       -6.8598399165
 H         3.5773248893        0.2482664067       -5.4201957963
 H         7.8451325925        1.2132671692       -5.7971911811
 H         8.1287616920        1.7178776736       -4.1021952727
 H         7.2402370149        2.8861773278       -5.2071485396
 H         6.3882807699       -0.4454219575       -5.8703602729
 H         6.7640511335       -0.8564501744       -4.1572022512
 H         5.1661971028       -0.7394703626       -4.7413651073
 H         2.0337679461        1.0258652326       -7.1104980602
 H         3.2229608000        2.3550323599       -7.4167743056
 H        -1.3894861809        5.3419230516       -5.8132190201
 H        -2.0914510173        4.1406779585       -6.8053661728
 H         0.8909486675        5.1558833824       -4.5741271120
 H         0.9405897730        6.0737645471       -6.0333037109
 H         2.5158569345        5.0626306677       -5.3179386004
 H         0.0290219178        4.4192795886       -8.1914561052
 H         1.7731440253        4.3587385714       -8.3878788891
 H         0.9177469791        2.8362057797       -8.3015673921
 H        -3.3623457393        4.8071545544       -4.6154994683
 H        -3.1066190222        3.0785130351       -4.6406488166
 H        -4.4807705879        2.3960788114       -1.3144296927
 H        -3.4949131171        1.0026203120       -0.7651601836
 H        -0.5382114581        4.4250535283       -0.6594390170
 H        -1.9052681335        5.0041993046        0.1783523084
 H        -1.1739320968        6.0528984469       -0.9247500488
 H        -4.2436010078        4.6666599677       -0.9212193103
 H        -3.7181751785        5.9259529276       -1.9652730008
 H        -4.5654478729        4.4563627517       -2.6558541141
 H        -4.7331561772        2.0796322400        0.9786606175
 H        -3.8690685700        3.4470414639        0.9708561048
 H        -3.9065992653        0.6678435529        5.8276629097
 H        -4.3894118372        2.3107810343        5.8593952957
 H        -1.8048640783        0.2446144441        4.0726176383
 H        -1.7095428224        1.6702593162        5.1006060965
 H        -0.7488968290        1.7737849702        3.6633533458
 H        -2.4166066626        4.1053312053        4.4651146472
 H        -1.2562724359        3.7892589403        3.2582202465
 H        -3.0281018784        4.3089436784        2.8172264138
 H        -6.5255431030        2.0354505299        5.9284622427
 H        -6.4767416590        0.7325322364        4.6146685127
 H        -8.6556523920       -0.1119722291        9.6394105965
 H        -9.1693070881        1.5797791795        9.6682274197
 H       -10.1941013967        0.2160350786        9.0177118096
 H        -8.7120848607        0.3883624903        5.0528255679
 H        -9.8444119647       -0.4241444389        6.1177941405
 H        -8.7540585425       -1.4232616730        5.1697785038
 H        -8.9091601586       -2.0334558748        7.8731914044
 H        -7.5401760789       -2.4991669910        6.8161576076
 H        -7.0947737498       -1.8130249358        8.3748432230
 Na        0.8591619541        2.2970770143       -2.5457274915
