155

 C        -8.0186052699       -1.2495584901        2.7399837420
 C        -6.9367277955       -1.0443272849        1.6021819931
 C        -6.9265167568       -2.1748085583        0.5363071542
 C        -6.5980754788       -1.4520529932       -0.7616285036
 C        -7.6114033249       -1.1379937738       -1.9764637351
 C        -5.7089424046       -3.0491772480        0.8983242845
 C        -8.2739438829       -3.0539227043        0.6045151249
 O        -6.2389668930       -0.0651568752        1.6232238619
 O        -5.5035808719       -0.9647025118       -0.8926382904
 C        -7.4538683164        0.3130274482       -2.3773420975
 C        -8.1201309900        1.2159771236       -1.2668841416
 C        -8.4872941492        2.7246369739       -1.5283268087
 C        -7.2990847947        3.5169989034       -1.0175786567
 C        -7.2297200121        4.0132178408        0.4347867723
 O        -8.5892490395        0.5994685632       -0.2737729467
 O        -6.3681258479        3.7305303609       -1.7593643644
 C        -8.7144488172        3.1465950776       -3.0161163951
 C        -9.6995176885        3.0571637811       -0.7725047953
 C        -5.7803530221        4.4897477550        0.8391394594
 C        -4.8755294336        3.3577672208        1.1042027556
 C        -4.0863080063        3.2408114057        2.4909322446
 C        -2.9534424397        2.2564380660        2.1724038588
 C        -1.8772999564        2.6941430776        1.1629432016
 C        -3.6623320857        4.6944864192        3.0698166383
 C        -5.1909184513        2.6470173168        3.4898738982
 O        -4.7444024605        2.4447293893        0.3114023126
 O        -2.9808787124        1.0888223508        2.6278033138
 C        -0.9035476397        1.5736491215        0.9119921529
 C        -1.3181349933        0.6512498863       -0.2756959118
 C        -0.6613174396       -0.7433018019       -0.5460166353
 C        -1.3077879120       -1.8534025933        0.3059772014
 C        -0.4908881935       -3.1537832361        0.5020688706
 O        -2.0026263973        1.1184133252       -1.1412367297
 O        -2.4906266813       -1.8240921886        0.7109129298
 C        -0.8306360927       -1.3568136127       -1.9824544868
 C         0.8103588890       -0.6522666266       -0.1605874974
 C         0.1736853763       -3.5287158636        1.9254754575
 C         1.3398913683       -4.5610207572        1.9413751259
 C         2.1291856730       -4.8318849170        3.2562115307
 C         2.5595915469       -3.5858946785        4.0515817651
 C         3.8770083554       -2.8656369182        3.9214768457
 C         1.1092770275       -5.5777830167        4.2350510581
 C         3.2840002816       -5.8323977633        2.9776120242
 O         1.5843640393       -5.2452885209        0.9764390424
 O         1.7738839376       -3.2132298735        4.9262826451
 C         3.7453038837       -1.3733030440        4.5049513706
 C         3.0529304672       -0.5442551491        3.4063497217
 C         2.6660694489        0.8825386900        3.8196362968
 C         2.7402582721        1.7655405244        2.5711984289
 C         4.1584125506        1.7717862884        1.9786123287
 O         3.0101433772       -0.9011247768        2.2462616968
 O         1.6995854445        2.1738126714        2.0064636178
 C         1.2745756876        0.5945303954        4.4641208126
 C         3.6577228821        1.4146787047        4.9317839713
 C         4.1161407726        1.7825413248        0.3578512777
 C         5.1621413380        2.7544943503       -0.2093462842
 C         5.5450003997        2.7272505468       -1.7819207804
 C         5.2961174062        1.3699521940       -2.5338751379
 C         5.6598516730        1.3973444359       -4.0795428410
 C         4.5112031738        3.7997460550       -2.3956912892
 C         6.9700469667        3.2461240912       -2.0557810762
 O         5.6296137862        3.6482209366        0.4339561723
 O         5.0866383070        0.3247448105       -1.9966367412
 C         5.2700084481        0.0386719955       -4.7141011750
 C         5.5548996452        0.0634299067       -6.1739713094
 C         5.7406746286       -1.2630976759       -6.9660051694
 C         7.2998996150       -1.4873069210       -7.0416562972
 C         8.0353752517       -1.5684675748       -8.4705091010
 O         5.4691268179        1.1174471320       -6.7674033593
 O         7.9552956434       -1.6963231298       -5.9935722652
 C         5.1589082924       -2.4704457130       -6.1582259498
 C         5.1161682143       -0.9528574429       -8.3354560563
 H        -8.9272437049       -0.9190589859        2.3336137403
 H        -7.9279922847       -2.3225117509        3.0260888232
 H        -7.6962825182       -0.7233624931        3.5935012192
 H        -7.4468552995       -1.8629150060       -2.8282639866
 H        -8.5542389304       -1.3923017189       -1.5694818845
 H        -5.5089434276       -3.7585839575        0.0163559773
 H        -5.9104595498       -3.5596193875        1.8513880387
 H        -4.8488579563       -2.4839583572        1.0503672166
 H        -9.1481038152       -2.5187786657        0.2539669558
 H        -8.0732439946       -3.8684013329       -0.0403171397
 H        -8.5044800212       -3.2783710294        1.6825402420
 H        -6.4698123345        0.5485695528       -2.6990806898
 H        -8.0996108913        0.5519314938       -3.2261075610
 H        -7.9497247888        4.8405062536        0.4265456265
 H        -7.5837689869        3.1981512324        1.1436488501
 H        -7.7738103397        3.2151549721       -3.4878905752
 H        -9.1530980082        4.0861760340       -3.0223636566
 H        -9.2578812236        2.4050537773       -3.5683232055
 H       -10.5829257834        2.5566860972       -1.1595473221
 H        -9.6025595027        2.8003487888        0.2804287624
 H        -9.9058780698        4.1610863399       -0.8642394373
 H        -5.9273979926        5.0207299762        1.7560686124
 H        -5.3951120080        5.2691137570        0.1276636798
 H        -2.3599212380        2.6400858039        0.1717894673
 H        -1.4395912044        3.6866131257        1.4467242936
 H        -3.7240660541        5.4081477772        2.2581847260
 H        -2.7238466375        4.6035661486        3.5709542367
 H        -4.2833197117        4.9176565969        3.9275579277
 H        -5.8088274388        3.5094677003        3.8820810957
 H        -5.8479502638        2.0419476726        2.9097569786
 H        -4.7417400664        2.0980147226        4.3671171454
 H         0.0851345818        1.9258600337        0.7342479165
 H        -0.8606097418        0.8787801632        1.7679540213
 H        -1.1168686588       -4.0657974700        0.2815949008
 H         0.3587079362       -3.2388370618       -0.1437488095
 H        -1.7830818075       -1.0147274654       -2.3771606856
 H        -0.8311357137       -2.3944715174       -1.9615734828
 H        -0.1916132154       -0.9721266624       -2.7845437109
 H         1.3022782559       -1.6240266121       -0.1033855882
 H         1.3049659841       -0.0172569215       -0.9475142602
 H         0.8449043597       -0.0628248193        0.8193742836
 H        -0.5669706217       -3.8234215509        2.6552674031
 H         0.5667943675       -2.6082755640        2.4206850030
 H         4.6237084265       -3.3097873464        4.6083857423
 H         4.2421018745       -2.8618602436        2.8954304552
 H         0.8887853571       -6.5496825026        3.8492284327
 H         0.1492478084       -5.0053411863        4.2664338154
 H         1.3029594779       -5.6626623146        5.2976301082
 H         4.1951866875       -5.3454730209        2.8544509392
 H         3.5228648566       -6.4960950672        3.8379066611
 H         3.1068985188       -6.4760226173        2.0592814703
 H         3.1365453389       -1.4988322474        5.3707160995
 H         4.6426590011       -0.9310737901        4.7727737458
 H         4.6380494970        2.6728106915        2.2417833046
 H         4.8271027264        1.0668501140        2.4664270387
 H         0.7669557147       -0.2424535515        3.9898005256
 H         0.7031684209        1.5525088760        4.4120543729
 H         1.5170971012        0.3658079973        5.5124644828
 H         3.2751593161        2.4296295728        5.1138954268
 H         3.6998143368        0.7611870634        5.8031568376
 H         4.6910757583        1.5736529743        4.5340481285
 H         3.1490614258        2.0844240143        0.0498449545
 H         4.2096998435        0.7720588211       -0.0117086726
 H         5.1580536170        2.2463643828       -4.5042368262
 H         6.7667757784        1.5623872869       -4.1533296450
 H         4.5458954492        4.8735258556       -1.8911984719
 H         3.4899275584        3.4361992331       -2.3833555302
 H         4.8965895653        4.0500072640       -3.4228241423
 H         6.9741006578        3.7820255972       -3.0078633891
 H         7.3393815566        3.9841339304       -1.3425727798
 H         7.6544300132        2.4440647767       -2.1475904720
 H         5.6329896309       -0.8652664306       -4.2154026080
 H         4.1592483541       -0.1704954916       -4.7417111714
 H         8.3852054540       -0.6032263844       -8.8193569657
 H         8.9107492759       -2.2485871767       -8.3996615245
 H         7.3964846989       -2.0142651012       -9.2154296987
 H         5.6227110726       -2.5953102931       -5.1421131453
 H         5.2316348998       -3.3385004672       -6.7810564555
 H         4.1844681100       -2.2058233296       -5.8705003422
 H         4.0336323766       -0.6931109542       -8.2184529228
 H         5.6542493600       -0.2457152389       -8.9156576584
 H         5.1136620124       -1.8533508095       -8.9492006312
 Na       -3.9776299117        0.0878362301        0.4328928802
