155

 C        -8.2190848969       -1.3253137146        1.8559650929
 C        -6.9364294899       -1.8030017848        1.1103123513
 C        -6.9812631724       -2.5711389427       -0.1694003731
 C        -6.7648480835       -1.4486021128       -1.4076069945
 C        -7.9550603976       -1.1248953027       -2.2652544336
 C        -5.6687062288       -3.4696322134       -0.2036972838
 C        -8.2373809361       -3.4992026646       -0.3439512567
 O        -5.8792783828       -1.2803158593        1.5563730591
 O        -5.7167525622       -0.8451193912       -1.3689688029
 C        -8.0377328805        0.3282453572       -2.6682565823
 C        -8.5941024246        1.2743725703       -1.4782485604
 C        -8.8788988820        2.7800282822       -1.6426203794
 C        -7.5698801306        3.5746354990       -1.0942062372
 C        -7.2289457736        3.3867397298        0.4921190719
 O        -8.7550465542        0.6768303829       -0.4237151453
 O        -6.8466670422        4.1824706782       -1.8719771695
 C        -8.9431970266        3.0376158035       -3.1637552312
 C       -10.0633719874        3.2372169062       -0.8625374526
 C        -5.9305445604        3.9794420574        0.9800817310
 C        -4.9195600281        2.8048096325        1.4154135078
 C        -3.6266352684        2.9079576188        2.3669424548
 C        -2.4639981840        1.8977302276        1.9599905026
 C        -1.2617229096        2.3984221352        1.1601565948
 C        -3.1305854163        4.3909635339        2.4293573010
 C        -4.2231810948        2.4877853720        3.7469956159
 O        -5.1451652764        1.7722564643        0.8510824331
 O        -2.7394135515        0.7070379109        2.2188295651
 C        -0.4221226300        1.1625631413        0.7105824649
 C        -1.3402968302        0.5125104528       -0.4247497651
 C        -0.7064818122       -0.7702613645       -1.1715686768
 C        -1.0452749758       -1.9303965927       -0.1636375168
 C         0.0132282838       -3.1566290671        0.0585072204
 O        -2.4239516392        0.9010703027       -0.7639490594
 O        -2.1512841824       -2.0366095777        0.3028831295
 C        -1.4838666510       -1.1466109182       -2.4845639468
 C         0.7667107497       -0.5578886505       -1.4858370037
 C         0.7074272431       -3.1764145893        1.4485560094
 C         1.9153514692       -4.0504017173        1.4358429635
 C         2.4505379965       -4.5853621480        2.9531530861
 C         2.2673858262       -3.2593147981        3.7958593325
 C         3.5696114223       -2.4066627722        3.8943681644
 C         1.4875647186       -5.6101431068        3.4441803261
 C         3.9335630259       -4.9845960774        2.8184542480
 O         2.6177729229       -4.2431714083        0.4945016187
 O         1.2424964754       -2.8326465573        4.2895573023
 C         3.2536678398       -1.1664997913        4.7220507433
 C         2.6508432352       -0.1435205832        3.7687301961
 C         2.4043710323        1.3312754814        4.2909706119
 C         2.5787316105        2.2264779194        2.9570181320
 C         4.0611292030        2.0037511850        2.4004250134
 O         2.4623305122       -0.3918027499        2.5819546770
 O         1.6774338310        2.6745964974        2.2929492371
 C         0.9751511640        1.5215050618        4.8003716160
 C         3.4404236540        1.6474399390        5.3865784336
 C         3.9931834502        2.0770403283        0.8643818026
 C         5.1435010717        2.9484618005        0.2156423549
 C         5.3266802708        3.0086937714       -1.3138636962
 C         5.4236536210        1.5024569844       -1.8784593389
 C         5.1383155832        1.1827266508       -3.3147615883
 C         4.1410199998        3.7339793278       -1.9875368565
 C         6.6443214666        3.7860823621       -1.7749005580
 O         5.8151744649        3.6331373876        1.0098134254
 O         5.6427071151        0.5848340102       -1.1135876101
 C         5.8009537002       -0.0023093233       -3.9923847595
 C         5.6215418151       -0.0507313305       -5.5153282959
 C         5.8613777684       -1.3419527168       -6.4051493599
 C         7.3954488004       -1.6872601556       -6.2208271470
 C         8.4089164835       -0.8783938913       -6.8993799762
 O         5.6303227850        1.0298339804       -6.1279621228
 O         7.6383612425       -2.6022565066       -5.4927684916
 C         5.0246894841       -2.5832478135       -5.9621143150
 C         5.4539497393       -1.0590939484       -7.8208780467
 H        -8.4913671716       -0.3395632894        1.4980704033
 H        -8.9914512752       -1.9892454485        1.6268261812
 H        -8.1159339059       -1.4432005885        2.9449987642
 H        -7.9007346942       -1.8431443096       -3.1194730046
 H        -8.8408305132       -1.3793456355       -1.6851502467
 H        -5.4971596504       -3.8249778845       -1.1634727171
 H        -5.7480201709       -4.2740753897        0.5401733196
 H        -4.7614090369       -2.8365075530        0.1448529046
 H        -9.1861549840       -3.1214169567       -0.6799703810
 H        -8.0251027961       -4.2393792320       -1.0998544549
 H        -8.5713856563       -3.8826790999        0.5498237361
 H        -7.1716865029        0.7641516931       -3.1284399847
 H        -8.8400511079        0.3623442912       -3.5388205685
 H        -8.0091332815        3.9735863369        0.8779804428
 H        -7.3614756668        2.3380096644        0.7770675698
 H        -8.2681849400        2.2607474234       -3.7426093942
 H        -8.8006588843        4.0193184761       -3.6768674048
 H        -9.9390024792        2.7143569494       -3.5276186167
 H       -10.8178785388        2.6166789132       -1.2825371657
 H       -10.0043758182        2.7879809202        0.1293465649
 H       -10.2816558092        4.2880478389       -1.0267700258
 H        -6.1935323041        4.6105352812        1.7763884423
 H        -5.5816131540        4.6902406266        0.1923478530
 H        -1.4942394518        3.0314009423        0.3074411396
 H        -0.7502239044        3.1002735679        1.7984323969
 H        -2.3502525978        4.5462946482        1.6770127208
 H        -2.8191513430        4.6520851804        3.4791773362
 H        -3.9408478730        5.1166488141        2.2112330972
 H        -4.6807698758        3.3399264357        4.2790281156
 H        -4.8851842076        1.5510100563        3.6484834290
 H        -3.3214441798        2.2500143165        4.2847703995
 H         0.5347039590        1.5520874627        0.3582611827
 H        -0.1709415112        0.5153881202        1.6075997679
 H        -0.5935429055       -4.0715210840       -0.0668502120
 H         0.9276087079       -3.2504999376       -0.5613131003
 H        -2.3458712980       -1.8388415800       -2.2162603799
 H        -0.7897874192       -1.8192524789       -3.1473192199
 H        -1.8315730333       -0.2771190608       -3.0957098346
 H         1.0169951710       -1.4544787508       -2.0233008298
 H         0.8938435804        0.3692456894       -1.9801344367
 H         1.2074377380       -0.5324281864       -0.5324430074
 H         0.0196135289       -3.4572578271        2.1897429857
 H         1.1144803161       -2.1412891780        1.7006380116
 H         4.4272345453       -2.9079636366        4.3056290215
 H         3.9484701117       -2.0099526858        2.9304614194
 H         0.9974222164       -6.2567535822        2.6640744862
 H         0.7199705405       -5.0611774995        3.9625185048
 H         1.9035464573       -6.3793862466        4.0865371209
 H         4.4203982578       -4.4085924705        1.9628690363
 H         4.5049330959       -4.7427172248        3.6828498447
 H         3.9585932861       -5.9942745861        2.5242223665
 H         2.5708843725       -1.3738111621        5.5905148042
 H         4.1790337867       -0.6664834414        5.2134090100
 H         4.7104210212        2.8167516887        2.7855831251
 H         4.5028492621        1.0606175435        2.6528847850
 H         0.3066902901        1.1216527306        4.1191317139
 H         0.7887030537        2.5367887033        4.9327584116
 H         0.7830947941        0.9966480025        5.7094636950
 H         3.1101494724        2.5577457409        5.9108982665
 H         3.5494841014        0.7453813486        6.0107660380
 H         4.3554879938        1.8340542825        4.8982716010
 H         3.0156278624        2.5474574857        0.6153265076
 H         4.0702172476        1.0693932251        0.4362621326
 H         4.1021251762        0.9446569835       -3.4316982595
 H         5.3450546953        2.0820620338       -3.9372956489
 H         4.0112817095        4.5897964567       -1.5105581081
 H         3.1970819356        3.2025730692       -2.1900370714
 H         4.4913946138        4.1030250928       -2.9223516132
 H         6.8416085963        3.6868727201       -2.8622553951
 H         6.6249116749        4.8337156051       -1.5476602661
 H         7.5787888969        3.3027064775       -1.3893728395
 H         6.8654400818        0.1020977494       -3.8977451340
 H         5.5185729790       -0.9798927115       -3.5145328251
 H         9.4126773569       -1.3120731005       -6.8112873083
 H         8.1223113508       -0.9538358990       -7.9440426863
 H         8.3482687821        0.1452302949       -6.5673786538
 H         4.7867194793       -2.6792242973       -4.9362308363
 H         5.3965287038       -3.6563496792       -6.1668868471
 H         4.0953324010       -2.6227120722       -6.6302213251
 H         4.3966058632       -0.8014329544       -7.6733463914
 H         5.7669321921       -0.0205857211       -8.1521081301
 H         5.6184612626       -1.8748898208       -8.5645314479
 Na       -3.9971980823       -0.6218487202        0.4659581556
