155

 C        -8.1465866161       -1.7388449858        1.8506036829
 C        -6.8464273579       -1.8580418447        1.0899124082
 C        -6.8928416253       -2.6110845208       -0.2478303009
 C        -6.7194963400       -1.5564802787       -1.4644619078
 C        -8.0153531636       -1.1646675007       -2.3254959725
 C        -5.6660997068       -3.6005097567       -0.2900343197
 C        -8.1587758612       -3.3787974168       -0.5183936770
 O        -5.8762620715       -1.2871076153        1.4931378012
 O        -5.6657572167       -1.0419199893       -1.7710178545
 C        -8.0605844572        0.3295948611       -2.5953477325
 C        -8.5763400878        1.2120529409       -1.4556641414
 C        -8.7172363942        2.8059983558       -1.6655402253
 C        -7.4956391198        3.4298763241       -0.9961661112
 C        -7.3582590535        3.3435657956        0.5441853178
 O        -9.0448049342        0.7079196642       -0.4355251576
 O        -6.7885303099        4.2060188132       -1.6059471503
 C        -8.8418582236        3.2745434306       -3.1458846755
 C       -10.0747167667        3.2680796789       -0.9977808599
 C        -5.9038487715        3.7928067310        1.0256081781
 C        -4.8841499234        2.7205323788        1.2551440676
 C        -3.6106173716        2.9756629707        2.2751874781
 C        -2.5891820331        1.8710102450        1.9079669470
 C        -1.2637225696        2.2963037375        1.1884092832
 C        -3.0475769832        4.3913217442        2.3007326221
 C        -4.1806232293        2.7461334042        3.7601499354
 O        -5.0973158067        1.5739934221        0.9679276955
 O        -2.8956317671        0.7368017678        2.1756370655
 C        -0.5944929050        1.1916355170        0.3693275280
 C        -1.4620375804        0.3621077605       -0.5728933107
 C        -0.7564761096       -0.7780165040       -1.3841459255
 C        -0.8979897527       -2.0903202713       -0.3758416429
 C         0.2115844090       -3.0362376955       -0.1513656104
 O        -2.6771001374        0.4565538337       -0.7606435378
 O        -1.9741535908       -2.3247038113        0.2088054996
 C        -1.5819616535       -1.0371279735       -2.7052173772
 C         0.7177415864       -0.5279278087       -1.6697508138
 C         0.6572803618       -3.0701906557        1.3460324346
 C         1.9669735340       -3.9071022922        1.4950294269
 C         2.4183299364       -4.4530332259        2.7930836255
 C         2.3400130916       -3.2718145518        3.8928551444
 C         3.5684949143       -2.4383899569        3.8923038777
 C         1.4562480698       -5.6383357215        3.2769477739
 C         3.8646452315       -5.1066230122        2.7421058301
 O         2.6116685261       -4.0438835878        0.4587048248
 O         1.3090173230       -3.0686545695        4.5184725129
 C         3.4315937985       -1.0545320951        4.5349100848
 C         2.4688500167       -0.0861936158        3.8250310196
 C         2.3789749529        1.3550335051        4.3339443988
 C         2.6483320412        2.2230082819        3.0307838958
 C         4.1334711024        2.3029542202        2.4240712571
 O         1.9217482414       -0.2777355993        2.7531113036
 O         1.7297546935        2.8096936389        2.5027735753
 C         0.9687849287        1.6938897961        4.8739067909
 C         3.3966631150        1.8407917547        5.4758036699
 C         4.0710669174        2.2850912676        0.8522830160
 C         5.3069161683        3.0379005739        0.2558065695
 C         5.3768294083        3.0290294312       -1.2826212736
 C         5.3859427117        1.5255223841       -1.8681809137
 C         5.2780245078        1.4166627892       -3.3868337931
 C         3.9801280273        3.6278963972       -1.7603223554
 C         6.5426325100        3.7886801163       -1.7923436394
 O         6.2399202404        3.5252157128        0.8312086138
 O         5.6682853087        0.5525529743       -1.1720656771
 C         5.5892264886       -0.0519923500       -3.9010543981
 C         5.6296585333       -0.0087589847       -5.4699716012
 C         5.9448629532       -1.3380703911       -6.1898562081
 C         7.3588012756       -1.6790066209       -5.9228891199
 C         8.4119862286       -0.6345108552       -6.4273189301
 O         5.5725878577        1.0230326824       -6.0379209836
 O         7.6654255978       -2.7517919242       -5.3960045638
 C         4.9815287201       -2.3658102729       -5.5505192995
 C         5.5532375830       -1.1385797393       -7.6700467957
 H        -8.7822599552       -1.2477296177        1.0644249761
 H        -8.6328272720       -2.7178024300        2.2141503588
 H        -8.0788655539       -1.1908954268        2.7935363097
 H        -8.0779722407       -1.7072538234       -3.2734097297
 H        -8.9361874041       -1.4203702043       -1.7664993631
 H        -5.5951178016       -3.8884540687       -1.3735357454
 H        -5.8500721846       -4.4488969936        0.3247022702
 H        -4.7876081182       -3.1673494360        0.0304636594
 H        -9.1023790160       -2.9776857976       -0.1022503677
 H        -8.3422679050       -3.5309756317       -1.5368775779
 H        -8.2780350517       -4.3368396338        0.0173505502
 H        -7.0975520732        0.8078691130       -2.9184710564
 H        -8.6367673394        0.5011396777       -3.4223434422
 H        -8.2159876860        3.9908213040        0.9243599130
 H        -7.5502849186        2.3182923418        0.8550233010
 H        -8.0209577265        3.3008870813       -3.7139097757
 H        -9.1861091348        4.2874281935       -3.1703161656
 H        -9.5715701373        2.7244131592       -3.7097899949
 H       -10.9507926043        2.8865239262       -1.5635918675
 H       -10.0807768632        2.7796059177       -0.0404607168
 H       -10.0993499635        4.3705383264       -1.0640727988
 H        -5.9272220491        4.4389337154        1.9570240370
 H        -5.5690311938        4.4776239270        0.2593636589
 H        -1.5469443996        3.0407906645        0.4137280002
 H        -0.5582306999        2.9203935695        1.7736425254
 H        -2.9035871673        4.7895770688        1.2906977916
 H        -2.1423418241        4.3848560502        2.8872807154
 H        -3.6200190800        5.0147689974        2.9980773443
 H        -5.2206318517        3.0093083647        3.7368652443
 H        -4.2168124412        1.7162956691        3.8049059065
 H        -3.6871541990        3.2755051645        4.5891968266
 H         0.2463911752        1.7229394789       -0.1153178647
 H        -0.1379260940        0.4738193419        1.0233660479
 H        -0.0719083303       -4.0243236706       -0.4900884935
 H         1.1097469563       -2.7788556722       -0.6494633052
 H        -2.6123334867       -1.0774457804       -2.5333708962
 H        -1.2395800430       -1.9884227887       -3.0310453450
 H        -1.4085650822       -0.2876944876       -3.4527194562
 H         0.9989270693       -1.3919168557       -2.2064710596
 H         0.8707458884        0.4129222334       -2.1982895805
 H         1.2215664289       -0.4645476505       -0.6632371251
 H        -0.2727503700       -3.4688065060        1.8397331113
 H         0.8964684442       -2.1100770564        1.7322904440
 H         4.3664375615       -3.0254759704        4.4089423171
 H         3.9321891749       -2.3160508175        2.8941163521
 H         1.5747610516       -6.3693994372        2.5401676939
 H         0.4044977031       -5.4551014816        3.4299931640
 H         1.8308350923       -6.1464291319        4.2409625320
 H         4.6150442446       -4.4265483002        2.4985849746
 H         4.1767669880       -5.4786398832        3.7459193384
 H         3.7321892834       -5.8819007472        1.9319926398
 H         3.1540014186       -1.2373597545        5.5760900492
 H         4.3054895399       -0.4575405514        4.5757627129
 H         4.6766526664        3.2078483406        2.8256933576
 H         4.7212081150        1.3698084770        2.7020779200
 H         0.0454494688        1.1201557837        4.4070067746
 H         0.8554433387        2.8198817128        4.7218520461
 H         0.8447099756        1.5004530281        5.9651124589
 H         3.4612592032        2.8958653145        5.3896571343
 H         3.0876332446        1.5052607151        6.4210574585
 H         4.4108722320        1.5081532112        5.2121482884
 H         3.1270522292        2.7957263790        0.6279965807
 H         4.0658795484        1.2713607010        0.4090480514
 H         4.2329813474        1.6398739746       -3.6917545991
 H         5.9530635062        2.0827821134       -3.8784370401
 H         3.8376460930        4.7484508672       -1.4614294498
 H         3.2790857855        3.0760857058       -1.2076903785
 H         3.7326903584        3.5774388348       -2.8510022092
 H         6.5046356326        4.0849020018       -2.8494604477
 H         6.5870310932        4.7201747799       -1.2109887247
 H         7.4737811442        3.2592702100       -1.6924550407
 H         6.6251719317       -0.2646054207       -3.4853228859
 H         4.9618944739       -0.8509691893       -3.5404554503
 H         9.1552624220       -0.5386118759       -5.6397459788
 H         8.9754809748       -0.9742566264       -7.3086359184
 H         7.9107776625        0.3195223518       -6.6093936230
 H         5.4071816713       -2.6981034308       -4.5470367257
 H         4.8446300668       -3.2451241085       -5.9975261864
 H         3.9868509863       -1.9916648862       -5.4578462388
 H         4.7624895213       -0.3709978017       -7.8211006503
 H         6.3702515564       -0.8509990267       -8.2615809300
 H         5.2104922112       -2.1366942837       -7.9592043659
 Na       -3.9813876733       -0.6737146688        0.5006152354
