155

 C        -7.9870545379       -2.8658876184        1.6507800448
 C        -6.7595148462       -2.4678538290        0.9440657751
 C        -6.7806519595       -2.8441737084       -0.5993278118
 C        -6.6380125671       -1.4891104315       -1.4887547338
 C        -7.7191305840       -1.0924291268       -2.3947935646
 C        -5.4789857787       -3.6041553326       -0.8994162615
 C        -8.0360593510       -3.5958050830       -1.1054871775
 O        -5.8228977764       -1.9139807759        1.5309124910
 O        -5.5958142709       -0.8071396547       -1.5213401110
 C        -7.6649711846        0.3727760514       -2.6699283730
 C        -8.4685015830        1.1839651267       -1.6287855431
 C        -8.4702956742        2.7187021033       -1.5404986707
 C        -7.3102829510        3.1209647439       -0.4385562679
 C        -7.6682095596        2.8732021364        1.0431462708
 O        -9.1507419107        0.5922207521       -0.7523482897
 O        -6.2877283379        3.6197919515       -0.8302309791
 C        -8.0214856307        3.3983912312       -2.9440496491
 C        -9.9216616140        3.2765285874       -1.1398938192
 C        -6.2967731244        3.2842673002        1.7249171607
 C        -5.1204081229        2.1889996076        1.2139103202
 C        -3.6891998487        2.5991483962        1.8538493198
 C        -2.4655210013        1.6363182319        1.4608614250
 C        -1.2405714011        2.1487477003        0.7385910114
 C        -3.4990585199        4.1619888351        1.6017734536
 C        -3.6684067691        2.3966710267        3.5058305443
 O        -5.3095540578        1.3207613515        0.4049098975
 O        -2.5679337339        0.4226136209        1.6969233434
 C        -0.4477221873        1.0815002967       -0.0049145994
 C        -1.3088338298        0.5355756567       -1.1295725999
 C        -0.8735951017       -0.8081926256       -1.8342654804
 C        -1.1316578555       -1.9987761502       -0.7298900017
 C        -0.0639234914       -3.0459528211       -0.3017343586
 O        -2.4482737720        0.8430470282       -1.3532741127
 O        -2.1968457912       -2.0279256653       -0.1498057144
 C        -1.9194117041       -1.3107450520       -2.8790334136
 C         0.5853199160       -0.8855430180       -2.3268405182
 C         0.5846552064       -2.7264768629        1.0656004742
 C         1.9357308143       -3.4547356403        1.2490391600
 C         2.1649578774       -4.1748953374        2.5633290801
 C         2.5959396534       -3.0572003364        3.6456728180
 C         3.3938528014       -1.8712310557        3.0558310412
 C         0.8522476747       -4.8975331101        3.1471687826
 C         3.2625677022       -5.3214676482        2.3729180765
 O         2.7065174297       -3.5030820042        0.3222768305
 O         2.3364379977       -3.2779172570        4.7804033883
 C         3.4093638575       -0.6613753800        4.0649374074
 C         2.2266020378        0.2360098934        3.9006283757
 C         2.2891947054        1.6014972833        4.5516257491
 C         2.5255177049        2.3957682388        3.1742003737
 C         3.8912726638        2.3548784767        2.5687636371
 O         1.3477972087        0.0593921657        3.0880533129
 O         1.5782985754        2.9541045315        2.6902644154
 C         0.9136694322        2.1263726942        5.1630106990
 C         3.4103471328        1.7322928369        5.5991472945
 C         3.8907200396        2.8287155896        1.0655323750
 C         5.2560229997        3.0849269410        0.5135980097
 C         5.3936611988        3.3131866763       -1.0424677724
 C         5.1719951565        1.8571025263       -1.7732619597
 C         5.9089569023        1.6230185644       -3.1390328032
 C         4.2043089986        4.2711265923       -1.4643543193
 C         6.7846197251        3.9422819509       -1.3199246856
 O         6.2040808530        3.2431894385        1.2744212535
 O         4.5028264259        1.0057707252       -1.1952445649
 C         5.4917718935        0.2505199615       -3.7341788987
 C         5.6203534094        0.0902667493       -5.2649017905
 C         6.0653861869       -1.3943177341       -5.5373497122
 C         7.4444090471       -1.7225031368       -4.8931018224
 C         8.4583757566       -0.5957064499       -5.0036264249
 O         5.3474108991        0.9830237204       -6.0619764063
 O         7.6908818147       -2.8468495780       -4.5191028389
 C         4.9615141348       -2.2587269639       -4.8941355161
 C         6.1082878147       -1.5122221139       -7.0375545118
 H        -8.4242860625       -1.9682929455        2.0114170604
 H        -8.6316713747       -3.4912599050        1.1625019912
 H        -7.6768654661       -3.3078063388        2.5950324137
 H        -7.5292461157       -1.7352897400       -3.2870732043
 H        -8.7543226140       -1.3588966420       -2.1543023149
 H        -5.3391441167       -3.7578719417       -1.9622853281
 H        -5.4329234660       -4.5670562871       -0.4127819705
 H        -4.6445183691       -2.8750144356       -0.5416152491
 H        -8.8236912522       -2.8716650306       -1.1160468145
 H        -8.0182456656       -3.9323529059       -2.1029307252
 H        -8.2836096499       -4.4846770373       -0.5511245485
 H        -6.5936506979        0.7973919072       -2.4420258997
 H        -7.8569047182        0.6101825507       -3.7138242749
 H        -8.4790695208        3.5832704618        1.2310574227
 H        -8.0931839072        1.9291411798        1.2663119443
 H        -6.8455410769        3.5736591927       -2.9346085897
 H        -8.5391120957        4.3789828579       -3.0103759775
 H        -8.1251000190        2.8605105651       -3.8986340253
 H       -10.6147267846        3.0410526191       -1.8771907444
 H       -10.1014262490        3.0251229908       -0.1126917738
 H        -9.6144725275        4.3442448225       -1.0384987423
 H        -6.2945350347        3.1022686280        2.8402553257
 H        -6.1164251787        4.2943187577        1.4587108808
 H        -1.5763515703        2.8807065783        0.0319632900
 H        -0.5677605461        2.6691009454        1.4160936918
 H        -3.9171949883        4.5545920317        0.6550349695
 H        -2.4739223300        4.3714430546        1.4442308134
 H        -4.0073814296        4.7811155708        2.3341005422
 H        -4.6700481166        2.7823081681        3.8334183921
 H        -3.5968999439        1.3125223142        3.8020523089
 H        -2.8111890462        2.8857532216        3.9473421194
 H         0.5518082703        1.5661187796       -0.2170291659
 H        -0.3036429291        0.2918577945        0.7463995473
 H        -0.3165473421       -4.1293348361       -0.2098678987
 H         0.6658024426       -2.9502477661       -1.0922469210
 H        -2.9098530809       -1.3396743832       -2.3651886696
 H        -1.5169738792       -2.4044279241       -3.0325003499
 H        -1.9620701411       -0.7478299820       -3.8535326640
 H         0.9049770506       -1.8675989672       -2.5854530785
 H         0.6782889775       -0.2511773742       -3.2094324601
 H         1.2493579763       -0.5761607470       -1.4842834024
 H        -0.1989589762       -2.9013245218        1.8631568386
 H         0.6936407625       -1.6456837901        1.0863777227
 H         4.4441458882       -2.1517985904        2.8619060229
 H         2.9986107958       -1.5169570907        2.1444383985
 H         0.3072094515       -5.4990105755        2.3750293721
 H         0.1317722699       -4.2847225399        3.6481500963
 H         1.2429699021       -5.6386640387        3.8489247107
 H         4.0343192687       -4.8363733288        1.8034504643
 H         3.5189413336       -5.7646844269        3.3002644805
 H         2.9170974803       -6.1469013199        1.7411994835
 H         3.4433595447       -1.0851737481        5.1485821777
 H         4.3460716092       -0.0613887534        3.8570193982
 H         4.5706162579        3.0504715262        3.0455257994
 H         4.4272842012        1.3401734854        2.7251756534
 H         0.0640353979        1.5987413799        5.1840504025
 H         0.6449536706        3.0209365701        4.7288217298
 H         1.1406652767        2.4716527115        6.1421868750
 H         3.3405375369        2.6883862512        6.1733317517
 H         3.4582002266        0.9178575721        6.3718748193
 H         4.3654083430        1.6209386072        5.0780201004
 H         3.3428501923        3.7442057394        1.0004387962
 H         3.3352921606        2.1227945617        0.4445118739
 H         5.4773503911        2.5219206900       -3.6653525306
 H         6.9445539917        1.7772739180       -3.2333420067
 H         4.2419993531        5.0667229608       -0.8594059776
 H         3.2538181361        3.7157709655       -1.3596832642
 H         4.2505230899        4.5526940149       -2.5026854325
 H         6.8301061649        4.2981679204       -2.3927315086
 H         7.1058727856        4.6464211032       -0.6423277858
 H         7.5461682163        3.1533645941       -1.1947635551
 H         6.1880157161       -0.5049054110       -3.2780190917
 H         4.5226600000       -0.0023396360       -3.2982972885
 H         7.9434738054        0.3708489327       -4.9552532707
 H         9.1889215814       -0.7227458372       -4.1842158291
 H         9.0619226332       -0.7480117000       -5.8555637242
 H         4.7365807193       -1.7960143034       -4.0062497069
 H         5.3811894792       -3.3228446651       -4.7088465342
 H         3.9054389154       -2.3308154283       -5.3162145422
 H         5.1755475191       -2.0530915706       -7.3958683868
 H         6.3459942726       -0.5588799057       -7.5165160729
 H         6.9181680202       -2.2489392669       -7.1836214921
 Na       -4.1691872948       -0.8369827561        0.3177834276
