155

 C        -7.7652637723       -2.9325185198        1.7576959582
 C        -6.6984606106       -2.5128147679        0.7481205266
 C        -6.6805978095       -2.9182972546       -0.8325348431
 C        -6.5732831878       -1.5465895078       -1.6547635702
 C        -7.7179287511       -1.0997937027       -2.6110650220
 C        -5.3830812490       -3.7241072122       -1.0196197090
 C        -7.9468292271       -3.8520451198       -1.2132947217
 O        -5.6906534746       -2.0433374955        1.2888725410
 O        -5.5831938986       -0.8344165231       -1.6248052871
 C        -7.8476675972        0.4544865455       -2.8990677375
 C        -8.5735303435        1.1607382114       -1.6648533046
 C        -8.3528387419        2.7697281222       -1.5547616383
 C        -7.1486441746        3.0188722385       -0.4443337837
 C        -7.4398994680        2.6832986867        1.0392101529
 O        -9.0433036091        0.5177259874       -0.7606131343
 O        -6.1287805350        3.6235522913       -0.7580774781
 C        -7.8547759177        3.3364994792       -2.8450889165
 C        -9.7963897172        3.3557891526       -1.0908710234
 C        -6.3264085547        2.9606587368        1.9986004926
 C        -5.0801308453        2.1279674743        1.4138916174
 C        -3.5525179222        2.5841591128        1.9191065322
 C        -2.5419566080        1.6084115668        1.3244254453
 C        -1.3350691257        2.2369920756        0.5809425343
 C        -3.2379637128        3.9704767296        1.5116084351
 C        -3.6532351664        2.4409567423        3.4611512770
 O        -5.2501503138        1.1622757202        0.7081162412
 O        -2.6311598652        0.4518625938        1.5505432003
 C        -0.5237909882        1.1889178836       -0.1946002031
 C        -1.4739649687        0.4205964495       -1.1105753189
 C        -1.1036300977       -0.8428686374       -1.7718757315
 C        -1.3577382158       -2.0791420579       -0.7731493859
 C        -0.2032572928       -3.0986844574       -0.3763730476
 O        -2.6133407776        0.8465559482       -1.3660843228
 O        -2.3928688927       -2.1527971716       -0.1409450360
 C        -1.9179538583       -1.2636548322       -3.0313054752
 C         0.4003335584       -0.7244881732       -2.2472812048
 C         0.4803505632       -2.6634515374        1.0344488138
 C         1.7863021826       -3.4370469280        1.1517153747
 C         2.1238692190       -4.1691674456        2.5509332197
 C         2.6366214783       -3.0583101380        3.5239034347
 C         3.5264455495       -1.8518438459        3.0474871781
 C         0.8670111745       -4.7475114268        3.2814002091
 C         3.2002173036       -5.2718569783        2.3132880119
 O         2.5223066828       -3.5152791158        0.1980072785
 O         2.5100089341       -3.1605723754        4.7223686977
 C         3.4517951644       -0.7541267997        4.0989484483
 C         2.3235326164        0.2213196407        3.8196047939
 C         2.2705406894        1.7188504501        4.4657406888
 C         2.4288982293        2.5902269158        3.1417025313
 C         3.7899441173        2.4802442157        2.5405084240
 O         1.3632310862       -0.1542866573        3.1674301623
 O         1.5098804475        3.1729656047        2.5611397654
 C         1.0094534075        2.0447168610        5.2552873070
 C         3.5025452033        1.9429423126        5.4079352727
 C         3.7263666080        3.0436683091        1.0748892998
 C         5.1478256214        3.1686646322        0.5762480961
 C         5.3992403913        3.3087524297       -0.9278642269
 C         5.0084167968        1.9995515975       -1.5941493444
 C         5.6093705271        1.7743907830       -3.0237755744
 C         4.4075160090        4.4103172967       -1.5239639854
 C         6.9108452762        3.6629847866       -1.1780902814
 O         6.0385085483        3.3491132175        1.4222586192
 O         4.1189314424        1.2267768054       -1.2332431095
 C         5.5111628324        0.3050351518       -3.4328340830
 C         5.5858564479        0.0469318519       -4.9690625677
 C         6.1205248462       -1.4326893945       -5.4269276264
 C         7.5069233853       -1.7115035436       -4.7665428764
 C         8.6778434079       -0.7121064361       -4.8015627879
 O         5.5087460212        0.9525444061       -5.7209697996
 O         7.5747791658       -2.6798057037       -4.0432885868
 C         5.0873320074       -2.4442992395       -5.0245426613
 C         6.1626761195       -1.4752665664       -7.0508944722
 H        -8.0108143160       -2.0639980312        2.4320699095
 H        -8.6402111967       -3.4205480110        1.1734206980
 H        -7.2837294967       -3.5646390936        2.5348314543
 H        -7.6984448056       -1.5718541513       -3.6034449864
 H        -8.6482205211       -1.4904220667       -2.1747859002
 H        -5.3803808799       -4.1067765426       -2.0574202305
 H        -5.3830235888       -4.5563611170       -0.3050870668
 H        -4.5634267823       -3.1349856823       -0.8967791519
 H        -8.9970971324       -3.5815275900       -0.9121045124
 H        -7.9520532089       -3.8775983019       -2.3201881600
 H        -7.7660034820       -4.8813339427       -0.7625709319
 H        -6.8941645811        0.7942210822       -3.2035361044
 H        -8.5018951719        0.6344352476       -3.7734370889
 H        -8.4348772031        2.9854720625        1.3964807677
 H        -7.4855081004        1.5574566426        1.0698595780
 H        -6.9223975233        3.0234319765       -3.0238176103
 H        -7.8831074244        4.4023354401       -2.7785494553
 H        -8.4602374563        3.0905182698       -3.6908084030
 H       -10.3943886088        3.0011773702       -1.9860182406
 H       -10.0749714590        2.8288602119       -0.1821491300
 H        -9.7045222060        4.3749391125       -0.8485706313
 H        -6.5809394839        2.6847211916        2.9899410410
 H        -5.9814357565        4.0200667823        1.8930389299
 H        -1.6386569477        2.9904262553       -0.1882424414
 H        -0.7264783321        2.7746473389        1.3260200757
 H        -3.1377767118        4.0785662415        0.4388026817
 H        -2.2442444862        4.3090210845        1.8051002008
 H        -4.0735110681        4.6647039447        1.6201380277
 H        -4.2980628970        3.1874989502        3.8925320420
 H        -3.9502452571        1.4470950120        3.6225562064
 H        -2.6439014312        2.4550168208        3.9543249019
 H         0.1641202556        1.7241232835       -0.8071659275
 H         0.0244779894        0.6372343205        0.5590972068
 H        -0.5746654988       -4.0935497288       -0.2251377730
 H         0.6217183943       -3.2137138211       -1.0824205915
 H        -2.8268580626       -0.7017074509       -2.9316663947
 H        -2.1308477196       -2.2787861721       -3.1028668116
 H        -1.3518704327       -0.8957496442       -3.8834974281
 H         0.6757181899       -1.6353729160       -2.8001632354
 H         0.5134545643        0.1438872979       -2.9217641974
 H         1.1536954962       -0.6137348873       -1.4630942189
 H        -0.1303106079       -2.6632582662        1.9214684315
 H         0.7088315187       -1.5978205184        0.8828044479
 H         4.5270408386       -2.2740498896        3.0769731971
 H         3.3719400667       -1.4185614465        2.0220179841
 H         0.4493062710       -5.5599354144        2.7958231487
 H         0.1322021976       -3.9442814638        3.3213230582
 H         1.1228692689       -5.1105032567        4.3369944040
 H         4.1454905041       -4.7983536805        2.1583770340
 H         3.1027908945       -6.0621149811        3.0982789550
 H         3.0240288303       -5.7613770956        1.3525590165
 H         3.1907402654       -1.3266484124        4.9653164936
 H         4.3823995942       -0.2386355906        4.2428151984
 H         4.6231754766        3.0658183119        3.0385087413
 H         4.1048413908        1.4591885137        2.5545656052
 H         0.2190559181        1.1831489102        5.0512257067
 H         0.4469930591        2.9597485253        4.8588969813
 H         1.0069456854        2.1811242212        6.3536903378
 H         3.3811708524        2.8604842491        5.9236964366
 H         3.6107966232        1.1747898870        6.1182220264
 H         4.4869081180        1.9213112196        4.9416231144
 H         3.3155121553        4.1008587241        1.0807323057
 H         2.9831481165        2.4765000419        0.4941226259
 H         5.2506309824        2.4528001396       -3.7610809015
 H         6.6946855165        2.0836089465       -2.9759119321
 H         4.5656313960        5.4290881118       -0.9910710715
 H         3.4392177801        4.0071378765       -1.4672675982
 H         4.6477625849        4.7136260720       -2.5775963083
 H         7.1164708757        4.0784416321       -2.1493782212
 H         7.1605577523        4.3992111884       -0.3256648797
 H         7.6467545107        2.8787278645       -0.9785863505
 H         6.0611767122       -0.3729524949       -2.7981289736
 H         4.4498853821        0.0999080941       -3.1240917955
 H         8.2545185887        0.2779634626       -4.8286947435
 H         9.3627164375       -0.9028974159       -3.9957320484
 H         9.2783824459       -0.8755861946       -5.7351634012
 H         5.1921721820       -2.8335925051       -3.9549616145
 H         5.1213667116       -3.1756637382       -5.6882757439
 H         4.1260345081       -2.0097192985       -5.0518350804
 H         5.2458712537       -1.0740053823       -7.5214658439
 H         6.9976820178       -0.8323213874       -7.3562661119
 H         6.3179959368       -2.5472946313       -7.3287342803
 Na       -4.1520924383       -0.6806588242        0.1585830395
