155

 C        -0.5373526981      -10.7412726752        0.4317185689
 C         0.5625209453      -10.4503072046        1.3636620711
 C         0.3861966747       -9.4072777960        2.6213104355
 C        -0.0450029002       -8.0763621101        2.0305287870
 C         0.9370023186       -6.7927324029        2.2108367207
 C        -0.9039817222       -9.9419065058        3.5768065748
 C         1.7700495436       -9.3461374956        3.3218869012
 O         1.6834120574      -10.8600758127        1.2037462272
 O        -0.9696793183       -7.9639874466        1.3005938431
 C         0.1759917065       -5.5150743416        1.8654383125
 C         0.9868164123       -4.6222315170        0.9142064129
 C         0.2262929974       -3.5232323306        0.1343904568
 C         1.0696455447       -2.2699008063        0.1432877444
 C         2.2668955546       -2.1959933096       -0.7785351028
 O         2.1666989984       -4.8367040554        0.6910918346
 O         0.7203293803       -1.2201777638        0.7810352299
 C         0.1761407087       -4.2549973004       -1.2690214462
 C        -1.2317955654       -3.2956156959        0.6173069883
 C         3.1339309846       -0.9545159642       -0.4619941362
 C         2.5023331394        0.3337784116       -0.8535201621
 C         2.9940892086        1.6478693443       -0.1189543799
 C         3.8570700296        2.4856698155       -1.0696886142
 C         5.3485228545        2.5171482458       -1.2111115580
 C         1.7456762577        2.4118285979        0.4377195770
 C         3.8483038390        1.3197657016        1.1320755016
 O         1.9453466348        0.5782181402       -1.8927210994
 O         3.1947020470        3.2445654943       -1.7591181727
 C         5.9696703854        2.6257296211       -2.6654310618
 C         5.5696056897        1.4594784213       -3.5559649106
 C         6.1541329334        1.2712935085       -4.9415239873
 C         5.1709321463        2.1224155160       -5.8440233820
 C         3.8259640628        1.4354539626       -6.1605057803
 O         4.9509481553        0.5258789931       -3.0809220707
 O         5.3599576110        3.2849214764       -6.1541242311
 C         7.5688322237        1.8713253769       -5.1637527655
 C         6.1277699717       -0.2527390715       -5.2685990831
 C         2.7615088146        2.1845242562       -6.9227750837
 C         1.7515785401        2.7993761358       -5.8708492834
 C         0.6033860143        3.8790090032       -6.2177315520
 C        -0.7592893836        3.4986422975       -5.6651830080
 C        -1.8823249017        4.5102094790       -5.8220039890
 C         1.0820465444        5.2896918421       -5.8038124377
 C         0.5400902965        3.9567089612       -7.8146022703
 O         1.6670396002        2.4165943098       -4.7413719651
 O        -1.0051129699        2.3706691599       -5.2686148262
 C        -2.7041741366        4.2739145585       -4.5115922526
 C        -1.9011922547        4.3198676771       -3.1272480634
 C        -2.5421328545        4.0201326124       -1.7692058626
 C        -2.1769711977        2.5891149080       -1.2156762218
 C        -3.1680549967        1.6722976032       -0.4893214932
 O        -0.7251440290        4.6892907693       -3.1130519058
 O        -1.0376362189        2.2402666045       -1.3847518573
 C        -1.7278275636        4.9007955284       -0.7045261262
 C        -3.9929101481        4.4319193600       -1.8642056118
 C        -3.6773473447        2.3533206792        0.8704738233
 C        -2.5934334986        2.0791394466        1.9748393533
 C        -2.9040609521        2.2801256143        3.5097859731
 C        -4.3225178824        1.7130274949        3.9645413538
 C        -4.5230256998        0.6945763504        5.0267028334
 C        -1.8218980119        1.5547577813        4.3984713658
 C        -2.8654657296        3.8274974429        3.8059196470
 O        -1.5556891044        1.5183174297        1.6416065855
 O        -5.3189485786        1.9380461289        3.2518805828
 C        -5.8523999592        0.9889360045        5.8051941323
 C        -6.0935602463       -0.0532668326        6.9237099375
 C        -7.6016888474       -0.4326074500        7.3535491390
 C        -7.9783523868        1.0171730034        8.0110124746
 C        -8.0228987261        1.2200998173        9.4835665599
 O        -5.1824464871       -0.6800364366        7.4203481651
 O        -8.1033617023        1.9554584521        7.2937879358
 C        -8.5792140095       -0.6641614740        6.1555822172
 C        -7.4729238342       -1.5179323902        8.4428077319
 H        -0.2735435773      -11.4101687166       -0.2616012227
 H        -1.4116351072      -11.1578984774        0.9360926423
 H        -1.0117760442       -9.8030469673        0.0614159383
 H         1.2069991488       -6.6974400480        3.2756368509
 H         1.7979791440       -6.8593711146        1.4346034478
 H        -1.7747905298       -9.9449177624        2.9513718999
 H        -1.0243525696       -9.2958351319        4.3810432853
 H        -0.6246278719      -10.9377771417        3.9057286392
 H         2.3992260541       -9.0446564034        2.4894132947
 H         1.7976247430       -8.7069910979        4.1772169671
 H         2.1519236808      -10.3431638147        3.5673271035
 H        -0.7898358191       -5.7630588730        1.2811081967
 H        -0.2364872212       -4.9326728264        2.7250694187
 H         2.9406743483       -3.0734384084       -0.8251282158
 H         1.8586610594       -2.0960078989       -1.7869776221
 H         0.0330978753       -3.5657015799       -2.1261722457
 H        -0.5841859365       -5.0677608973       -1.3813520553
 H         1.1380752186       -4.6422221408       -1.4335264671
 H        -1.8160823399       -3.8274647752       -0.0638263302
 H        -1.5234971808       -3.6419139014        1.6161696000
 H        -1.4958359460       -2.2324478253        0.6171127185
 H         4.0176015618       -0.8803283020       -1.1354026429
 H         3.4434989151       -0.9479211602        0.6627146745
 H         5.4480985389        3.5161035336       -0.7171572352
 H         5.8986306423        1.7125922881       -0.6400370429
 H         1.8895576692        3.4577540018        0.1092458050
 H         1.7531449248        2.4198359084        1.5112806312
 H         0.8185922962        1.9351077193        0.1028430720
 H         3.5631915243        0.6338654672        1.8737689243
 H         4.7630251677        0.8750702593        0.8443558607
 H         4.1088834091        2.1995590486        1.7002108211
 H         5.8201046798        3.6545387507       -3.0179673363
 H         7.0434578216        2.6313758005       -2.6840802663
 H         3.9846582220        0.5089223930       -6.7707490309
 H         3.3662188187        1.0864078131       -5.2191940328
 H         8.0666287217        1.2058833224       -5.8645565110
 H         8.1596604642        1.8076246037       -4.2307482799
 H         7.5344785385        2.8417495742       -5.6604531485
 H         6.3660241884       -0.3735663873       -6.2824871411
 H         6.9572568454       -0.7318780289       -4.7747973729
 H         5.2617607230       -0.7074286896       -4.9714477944
 H         2.2620022380        1.4322907770       -7.5480848160
 H         3.1812986217        3.0268015144       -7.5955794996
 H        -1.3386416277        5.4880093428       -5.9199302896
 H        -2.5218573028        4.2408894241       -6.7097631428
 H         0.5380315831        5.5838024125       -4.8587921782
 H         0.6587576379        6.0501291730       -6.5366646235
 H         2.1665301044        5.3121801112       -5.7418801569
 H        -0.4307897049        4.4237247664       -8.1576665472
 H         1.3648738336        4.5757122222       -8.1244435794
 H         0.6016983368        2.9582321132       -8.2271425037
 H        -3.6582988525        4.8413381196       -4.5288743291
 H        -3.0598428796        3.2560578999       -4.5711962256
 H        -4.0410805834        1.4938964399       -1.1486980098
 H        -2.8422401822        0.6484673526       -0.3617349585
 H        -0.7804907356        4.4978443504       -0.4389501461
 H        -2.2433780238        5.1967955927        0.2313128046
 H        -1.4450635518        5.8144787402       -1.1813194463
 H        -4.4893237005        4.2989616844       -0.9490944921
 H        -4.0681971174        5.5146695335       -1.8720778937
 H        -4.6674504165        4.0708932050       -2.6499272871
 H        -4.5218003565        1.7761268106        1.1764239608
 H        -3.9833575122        3.3768967410        0.7871040957
 H        -4.6204897364       -0.2262224344        4.3849446517
 H        -3.6765014824        0.5888566729        5.7597706190
 H        -1.6633831079        0.5044633091        4.0280943440
 H        -1.9461652515        1.7622752942        5.4588846299
 H        -0.8379996169        1.9810028058        4.0890221127
 H        -3.2952780544        3.9913842757        4.7967812178
 H        -1.8641552118        4.2114473958        3.6303251134
 H        -3.4218923658        4.3184473463        3.0243738707
 H        -5.9754126419        2.0017032909        6.1948767001
 H        -6.6240881303        0.9239896158        4.9977597008
 H        -7.0493524040        1.3228722305        9.8388130029
 H        -8.4877480149        2.2073516902        9.6384550924
 H        -8.5145106754        0.4425948908        9.9851537298
 H        -8.5635417839        0.1633349418        5.4985116485
 H        -9.5619019249       -0.8590348011        6.5448368278
 H        -8.2352431720       -1.5702965766        5.6397595131
 H        -8.4581718089       -1.5339004522        9.0307503162
 H        -7.2969517874       -2.5277014775        8.0877255066
 H        -6.6250968599       -1.2754031396        9.0969457311
 Na        0.9945454259        2.5116216528       -2.5703467845
