155

 C        -7.3013642120       -4.1656206503       -0.3145554121
 C        -6.1753737958       -3.2242262866       -0.7330872980
 C        -6.0095921505       -2.7620909155       -2.2560036062
 C        -6.1394276554       -1.2414311499       -2.2504812043
 C        -7.3964285801       -0.6198783710       -2.8513046710
 C        -4.6126412045       -3.3528744724       -2.7508934454
 C        -7.1885205505       -3.3564156471       -3.0145936316
 O        -5.3487614449       -2.8414240079        0.0546082513
 O        -5.2399973180       -0.5485827403       -1.8332316956
 C        -7.5996868276        0.9288726925       -2.6562260631
 C        -8.8008726843        1.2834022738       -1.8544749221
 C        -8.7360503034        2.7142062479       -1.3277481253
 C        -7.4342196048        2.8069008836       -0.3629273736
 C        -7.6853154778        2.2363648970        1.1099021424
 O        -9.6636890122        0.4498321902       -1.6004197786
 O        -6.4004471050        3.3527873890       -0.7385998454
 C        -8.5443071268        3.7754604588       -2.4061018825
 C       -10.0181396397        2.9972207294       -0.4818741306
 C        -6.4028414201        2.3239682229        1.9522572720
 C        -5.4224525488        1.2233421035        1.6541199214
 C        -3.9255916156        1.4518792815        2.4801999640
 C        -2.8978594609        0.8048415419        1.5322229667
 C        -2.1876045933        1.6096178819        0.4924421332
 C        -3.6297115979        2.9596625218        2.7204350324
 C        -4.1319435767        0.7059112875        3.8401975943
 O        -5.6628956290        0.2020606518        1.0577311627
 O        -2.6494835216       -0.4151831329        1.6970293662
 C        -0.9499201040        0.9375331738       -0.1798367984
 C        -1.4208603792        0.1814407346       -1.4890711656
 C        -0.6249606857       -1.0423691968       -1.8793724997
 C        -0.6928284963       -2.2130414494       -0.7759685660
 C         0.5294847537       -3.1072588631       -0.4321206320
 O        -2.4718728018        0.4603649002       -2.0234478315
 O        -1.7709478793       -2.3156639586       -0.2709683718
 C        -1.1887241036       -1.8224905432       -3.1241684522
 C         0.7947759944       -0.5237457112       -1.9851986904
 C         1.7580099483       -2.5641326355        0.2769375810
 C         2.4507642577       -3.7110137534        0.9472280240
 C         2.4488090542       -3.9090887784        2.4967574271
 C         2.6122223465       -2.4887084081        3.2352364524
 C         3.8970663858       -1.6341516578        3.1702321726
 C         1.1127257518       -4.5421870113        2.9894825477
 C         3.5915504078       -4.8703499622        2.7626764111
 O         2.9194579169       -4.5691508738        0.2437260900
 O         1.5535112301       -1.9485998713        3.5675144667
 C         3.7431005361       -0.1494284730        3.3760403740
 C         2.5307582478        0.5474263314        2.6701001681
 C         1.6348421264        1.5948466074        3.4100368743
 C         1.5380070000        2.8444266256        2.4835044819
 C         2.7337770741        3.9130348986        2.7296616799
 O         2.0962587392        0.1878409500        1.5631589514
 O         0.5523480741        3.1096505368        1.7816413320
 C         0.1236246174        1.0330357492        3.6053350678
 C         2.1155386676        2.0784860593        4.8062018887
 C         3.3319697343        4.5141071600        1.5198379969
 C         4.2100920861        3.5198988201        0.6433218485
 C         4.8120066094        4.1987126934       -0.6623175601
 C         4.9031731585        3.1224030598       -1.8845689687
 C         5.6982110018        1.8592772652       -1.5155273445
 C         4.1520046746        5.5281136556       -1.3738584269
 C         6.2574625893        4.4755108840       -0.3720976737
 O         4.4541237428        2.4025729380        1.0000962307
 O         4.3378778645        3.3804574816       -2.9104333206
 C         5.2252253972        0.5061997825       -2.1363764259
 C         6.0486195170        0.2567483679       -3.4239209708
 C         6.8037765620       -1.1086863208       -3.4465849489
 C         7.5964937400       -1.2319823721       -2.0684604914
 C         8.0970391262       -2.6370172789       -1.6835753964
 O         6.0827284966        0.9947545718       -4.3622678096
 O         7.7754724558       -0.3734061975       -1.2687563379
 C         5.8099255713       -2.3610445947       -3.6895019493
 C         7.7649817473       -1.2567123770       -4.5752969185
 H        -6.9528829220       -4.4571337391        0.6805388469
 H        -8.1586212156       -3.5356029051       -0.1151870747
 H        -7.4063502341       -5.1880801196       -0.7839126970
 H        -7.3697218305       -0.8604728743       -3.9536433252
 H        -8.2991248043       -1.1046965892       -2.5843728119
 H        -4.4967690322       -3.0772165523       -3.8090808281
 H        -4.5079147799       -4.3881972430       -2.8051801889
 H        -3.7518336218       -2.9020730617       -2.1871016173
 H        -8.1489725392       -3.3869083511       -2.4918905330
 H        -7.5803362504       -2.7788026480       -3.9243641723
 H        -7.0195699344       -4.4318907494       -3.3034917805
 H        -6.7082191275        1.4202942315       -2.2530626285
 H        -7.6739913898        1.4292054817       -3.6254061869
 H        -8.4936835119        2.8150182363        1.5427088537
 H        -8.0323717390        1.1579732478        1.0775430145
 H        -7.5864440198        3.6746700421       -2.8836219345
 H        -8.4967318729        4.7504058874       -1.8001007294
 H        -9.3275308758        3.7807932192       -3.2260368778
 H       -10.8777769830        3.0834441260       -1.1491442281
 H       -10.2759720182        2.2360204749        0.2501353290
 H       -10.1655675734        4.0083952831       -0.0335236366
 H        -6.6136594236        2.3986617144        2.9995666467
 H        -5.7543836736        3.2292612431        1.7182942808
 H        -2.9023912237        1.8203656703       -0.3290763397
 H        -1.8372712145        2.5788671663        0.7668205355
 H        -3.9274207403        3.5108770898        1.7784826214
 H        -2.5310074482        2.9593603461        2.7287648435
 H        -4.0633411795        3.3097874489        3.6926996944
 H        -4.7719874570       -0.1696487484        3.7197658062
 H        -3.2428256812        0.1566752278        4.1534942529
 H        -4.5243889449        1.3700338673        4.5843742281
 H        -0.2794572922        1.8054855034       -0.1952156152
 H        -0.4984466295        0.1022365449        0.4150723773
 H         0.0675558937       -4.0179559397        0.0012152498
 H         0.8970740302       -3.3860540847       -1.4243824183
 H        -1.8229587747       -2.7164359934       -2.8932740241
 H        -0.4269936453       -2.0155720061       -3.8570004014
 H        -1.9013043748       -1.1144142726       -3.5545430002
 H         1.5496924138       -1.1771817213       -2.4005516276
 H         0.9703972221        0.3322175090       -2.6563043084
 H         1.3337353693       -0.2549900202       -1.0492676041
 H         1.5056397623       -1.7327633939        0.9228521964
 H         2.3337090928       -2.0754298914       -0.5191674716
 H         4.6561179149       -1.9599305485        3.8836121553
 H         4.3602740901       -1.9099849380        2.2005717310
 H         1.1489036907       -5.6376585992        2.6826712641
 H         0.1661780602       -4.1066160924        2.6170464357
 H         1.1431473904       -4.4726535177        4.0496208357
 H         4.4890875520       -4.6029932770        2.2037416000
 H         3.8745646043       -4.8532407177        3.8062268881
 H         3.2819209954       -5.9198848545        2.5829937976
 H         3.8099436761        0.0178561289        4.4720572348
 H         4.6149565432        0.3351909781        2.8780968154
 H         2.2993203009        4.6973361566        3.4147550980
 H         3.5076364007        3.4232410231        3.2390947274
 H        -0.3505918346        1.0914033601        2.5271039175
 H        -0.3420944866        1.8517205919        4.2463088461
 H         0.1607897556       -0.0232355518        3.9488288320
 H         1.2129703009        2.3500016318        5.3040000919
 H         2.4936303217        1.2945067690        5.4482653252
 H         2.7430562352        2.9904115966        4.8343657503
 H         3.9147080738        5.4144557911        1.5869070365
 H         2.5011103263        4.7941941115        0.9185148236
 H         6.6967606749        2.0363958472       -1.8273245632
 H         5.9275461354        1.7121050220       -0.4336033196
 H         4.2551789490        6.4252094890       -0.6110512350
 H         3.1136215489        5.4303627996       -1.6370900109
 H         4.7062439056        5.7021663900       -2.3514736624
 H         6.7921659319        4.9710142006       -1.2243351623
 H         6.2526591338        5.2609575628        0.3893811921
 H         6.6918476204        3.5749836178        0.1053476425
 H         5.3364221833       -0.2510682569       -1.3265454652
 H         4.1653667929        0.5169064002       -2.3555357763
 H         8.9951609979       -2.4731547974       -1.1266297097
 H         7.4448790318       -3.1163334219       -0.9336544374
 H         8.4237377793       -3.2549014922       -2.4919648513
 H         4.7895375756       -2.0693199426       -3.1427515479
 H         6.1213790865       -3.4008316710       -3.4234927339
 H         5.5392664165       -2.3550148712       -4.6688626065
 H         7.2353162071       -1.0310858778       -5.5542357673
 H         8.5865363979       -0.5767256832       -4.4999600067
 H         8.1182610212       -2.2725962722       -4.7449153672
 Na       -3.7045009628       -1.2167809861       -0.3166023157
