155

 C        -7.5288103391       -4.0422995006       -1.0839385455
 C        -6.4262715782       -3.1630268378       -1.6839587415
 C        -6.2526013293       -2.9227303767       -3.2661401409
 C        -6.3321587686       -1.3587527325       -3.4405309352
 C        -7.4347406677       -0.5914481854       -4.3278366657
 C        -4.7491775688       -3.2117459755       -3.6858878399
 C        -7.3504667336       -3.7600267684       -4.1783174334
 O        -5.6184462584       -2.7804584952       -0.8779115810
 O        -5.5088670059       -0.6699142240       -2.9232978201
 C        -7.8238119865        0.8109371730       -3.7133620448
 C        -8.2305003653        0.6628982289       -2.1795995381
 C        -8.8312673029        1.8940912292       -1.3603453649
 C        -7.8827720398        2.3840538338       -0.2186797407
 C        -8.0226121567        1.6367596459        1.1514135017
 O        -8.2774402756       -0.4802231716       -1.6825646906
 O        -7.0073203143        3.1778187862       -0.3895523283
 C        -9.0198776439        3.0918757882       -2.2849609088
 C       -10.1940549881        1.4687992565       -0.7943873464
 C        -6.6334549910        1.7251788974        1.9476055508
 C        -5.5935276230        0.7023387357        1.4760740986
 C        -4.0219156606        0.7374086327        2.2696410548
 C        -2.9121651683        0.6682734089        1.1738284974
 C        -2.1934508904        1.9531971968        0.6110202309
 C        -3.7310934957        2.0372539348        3.1034088870
 C        -4.0637149768       -0.5242972178        3.1033265094
 O        -5.8648965394       -0.1827079111        0.7161144845
 O        -2.5227916643       -0.4525284979        0.8886157388
 C        -1.0291471959        1.5873292746       -0.3736537391
 C        -1.4901288170        0.4410154821       -1.3597504040
 C        -0.4962162579       -0.8543394181       -1.6236196500
 C        -1.0421213273       -2.2384802693       -1.1283096418
 C        -0.0300640164       -3.3303097838       -0.8560974290
 O        -2.5865027215        0.5173924819       -1.9795553041
 O        -2.2531287700       -2.4199445138       -1.0788721241
 C        -0.4750417405       -0.9166919644       -3.2195695602
 C         0.9692729961       -0.5767282794       -1.2671814259
 C         0.4586719874       -3.4438323889        0.5931454260
 C         1.9515998595       -3.5206088757        0.7749992818
 C         2.4865782433       -3.5557993959        2.2198491561
 C         3.0286440643       -2.1162718252        2.6826671398
 C         3.6483770596       -0.9753425207        1.9109220454
 C         1.4027588006       -3.9894213162        3.1872786294
 C         3.5580853198       -4.5724131635        2.2354902556
 O         2.7207068308       -3.6564038700       -0.1675169603
 O         3.0910236971       -2.0961471900        3.8973025797
 C         3.8412574913        0.1841673908        2.8096332669
 C         2.5378007929        0.9083432297        2.9906785652
 C         2.3905736494        2.2262499038        3.9740527925
 C         1.5686052580        3.2971269276        3.2292858775
 C         2.2268269742        4.6391610921        2.8551425565
 O         1.5544011936        0.6192702124        2.2775804368
 O         0.3648713859        3.1581859133        3.0952292978
 C         1.4884930188        1.7665278065        5.1359965137
 C         3.8149166121        2.6853461084        4.4044403856
 C         2.8245259793        4.7815359154        1.3721240702
 C         4.2413849217        4.2591947029        0.9390832508
 C         4.5442289773        4.2865336397       -0.5994451790
 C         4.2478683270        2.7743382457       -1.0830938727
 C         5.3233300788        1.6316157371       -1.0916402069
 C         3.7227754155        5.1256652816       -1.5605826271
 C         6.0269540840        4.6152215978       -0.7282438810
 O         5.0791893240        3.9277715604        1.7651903529
 O         3.1546334633        2.5029226811       -1.5122155869
 C         5.4572370396        0.8400585134       -2.4253450326
 C         6.8967301146        0.4229062818       -2.6921313988
 C         7.4011421644       -1.0358215085       -2.3322230290
 C         7.4921326442       -1.3207516568       -0.7317113883
 C         8.5771835910       -2.1638097463       -0.2509677306
 O         7.6988306395        1.2678989631       -3.0101573965
 O         6.6893120857       -0.8166907473       -0.0074132711
 C         6.4300264519       -2.1248100918       -2.8171380228
 C         8.8104454312       -1.3021598287       -2.9515517733
 H        -7.3948505374       -4.0652241100        0.0512448797
 H        -8.4618225593       -3.5443625575       -1.3642131995
 H        -7.5293787276       -5.0057607345       -1.5804696406
 H        -7.0365032996       -0.4189872826       -5.3282575365
 H        -8.2752976662       -1.2249346700       -4.3029885763
 H        -4.5029968724       -2.7692312119       -4.6075194784
 H        -4.4742089292       -4.2799203666       -3.7790373294
 H        -4.0809848479       -2.7230440132       -2.9716730756
 H        -8.3173755360       -3.4280179571       -4.0257157732
 H        -7.1834061634       -3.5593665164       -5.2482322103
 H        -7.3009604080       -4.7776843424       -3.8251947749
 H        -7.0124982913        1.5868287748       -3.8059189981
 H        -8.7030223737        1.1323872776       -4.2877460187
 H        -8.8850889244        2.0772209757        1.5981010727
 H        -8.3393387772        0.5770835379        0.9635096809
 H        -8.0599860370        3.5396641395       -2.4994308249
 H        -9.6604138846        3.8400621701       -1.7635091305
 H        -9.3409479271        2.6706072494       -3.3241484071
 H       -10.9956469333        1.3121703006       -1.5327591330
 H       -10.2933086609        0.6095667173       -0.1539075167
 H       -10.6693872560        2.3395720488       -0.3917617459
 H        -6.6251044103        1.6783918743        3.0306694439
 H        -6.2630325699        2.7953276336        1.6892430566
 H        -2.8565735204        2.6446072081        0.0597715206
 H        -1.8254196853        2.4386791559        1.5050918341
 H        -4.1188188779        2.9244281669        2.5755540696
 H        -2.6242266771        2.2479278230        3.0177653341
 H        -4.0501392926        2.2389193651        4.1494376121
 H        -4.3965294238       -1.3109173283        2.4120286948
 H        -3.1035140607       -0.9583054226        3.4054612915
 H        -4.7689403521       -0.4373443678        3.9268500885
 H        -0.7149965161        2.4653703705       -0.9715324209
 H        -0.1058265179        1.2721511202        0.1747626713
 H        -0.6014649093       -4.2716290323       -1.0270043262
 H         0.8661479808       -3.2635464565       -1.4589132720
 H         0.4331360462       -1.4080478775       -3.4966143591
 H        -0.5137160398        0.1769842136       -3.5586000693
 H        -1.3552994764       -1.4282386968       -3.6133569758
 H         1.7828060992       -1.3478137750       -1.4007416106
 H         1.1965924280        0.2738356983       -1.9265329331
 H         1.0386629834       -0.2983184242       -0.2136681630
 H        -0.2225341899       -4.2218062499        1.1046078260
 H         0.2266687169       -2.4317577527        1.0108657901
 H         4.6128722908       -1.3404388348        1.6226979739
 H         3.0039260406       -0.8338444041        1.0411715447
 H         0.8529416921       -4.8995204042        2.9882495751
 H         0.5595041501       -3.1948445508        3.1745169262
 H         1.7744148581       -4.0779688121        4.1244252526
 H         4.1830126986       -4.4748364495        1.3362645043
 H         4.2209790179       -4.4246427460        3.1394966894
 H         3.1191069317       -5.5331100540        2.3719347625
 H         4.2157396238       -0.2062549155        3.8108658196
 H         4.6294864656        0.9262505900        2.5450503015
 H         1.4135564582        5.3776641676        2.9005448143
 H         2.9345459386        4.8455863032        3.6478323432
 H         0.4587223180        1.5015781814        4.7235641840
 H         1.4000904216        2.6303319007        5.7680993476
 H         1.8767244985        0.8648056808        5.5312239556
 H         3.9697590906        3.7681577847        4.5588238349
 H         4.0850537017        2.2550515170        5.3947586264
 H         4.5431903272        2.4289908210        3.6597507100
 H         2.8676822300        5.8176172455        1.0629999794
 H         2.1482626121        4.3045934360        0.7128969309
 H         6.3192576357        1.8583401531       -0.7935717175
 H         4.8509877109        0.8913433662       -0.4192160099
 H         3.6976696412        6.1068238788       -1.1136126675
 H         2.7426355936        4.8344359466       -1.8617824719
 H         4.3469687705        5.1377504975       -2.4550347914
 H         6.5118737096        3.9240595022       -1.4611307939
 H         6.2676037062        5.5671155972       -1.2230656583
 H         6.6373543808        4.6547586591        0.2137256600
 H         4.6841754754        0.0961680526       -2.4713190103
 H         5.2196686655        1.6226045284       -3.1527702842
 H         8.6201004865       -2.9554246376       -0.9889615621
 H         9.5055378134       -1.6456851856       -0.1258888488
 H         8.3862366080       -2.6862001563        0.6850268098
 H         5.4864619346       -1.9003532268       -2.3209660576
 H         6.8130623584       -3.2353116369       -2.7790767197
 H         6.2774929845       -1.8321474901       -3.7586410051
 H         9.0009127279       -0.5697509758       -3.6958428548
 H         9.5815552580       -1.1123292963       -2.1322228520
 H         8.9020116766       -2.2906648792       -3.4240938202
 Na       -4.1984301208       -1.0280916898       -1.0293936601
