155

 C        -7.7909073728       -4.1218234889       -1.6645554866
 C        -6.6428127641       -3.2132030196       -2.0118002056
 C        -6.3223438953       -2.9337408090       -3.5658262358
 C        -6.3256671461       -1.3802834408       -3.8268833950
 C        -7.4890178106       -0.5854186901       -4.5491320740
 C        -4.8384274085       -3.4424160423       -3.7503764494
 C        -7.2447903015       -3.6850347490       -4.4440761107
 O        -5.9256200799       -2.8496655202       -1.1497810746
 O        -5.4371150448       -0.7026122518       -3.3260601976
 C        -7.8961137016        0.6157355903       -3.7609748071
 C        -8.2748840138        0.3097590735       -2.2925865625
 C        -8.9902954943        1.4843546957       -1.4486253420
 C        -7.9709982721        1.8748824679       -0.2476040713
 C        -7.8517363980        0.7985951677        0.8571476964
 O        -8.0485494806       -0.7007733188       -1.7720437282
 O        -7.3208366046        2.8958681393       -0.2138828037
 C        -9.1265723087        2.7733387456       -2.2140275370
 C       -10.3908181345        1.1147839337       -0.8353271556
 C        -6.6647763896        1.1195675119        1.8600475558
 C        -5.3970628091        0.7537996708        1.1438936647
 C        -4.1227086580        0.5074340589        2.1506358781
 C        -2.7691385285        0.4667132567        1.3719140999
 C        -2.3330166726        1.8085172645        0.5727764300
 C        -4.0516936536        1.7454648819        2.9943735255
 C        -4.3875944119       -0.7890434588        2.8341914113
 O        -5.2909209139        0.7436175278       -0.0779488487
 O        -2.1738818921       -0.5852760062        1.1944953960
 C        -1.0872208531        1.5940816644       -0.3404746732
 C        -1.5180850991        0.5540338220       -1.3479681010
 C        -0.4752202265       -0.6379275065       -1.6854352405
 C        -1.0496013658       -1.9775011528       -1.2777304860
 C        -0.3074089901       -3.0437175714       -0.6447278865
 O        -2.5550477797        0.6806721375       -1.9397112711
 O        -2.1891419857       -2.3614315045       -1.6169628993
 C        -0.4610811591       -0.7557795406       -3.2379637906
 C         0.9884534644       -0.2418676281       -1.2358331440
 C         0.2046229618       -2.7522094023        0.8740700496
 C         1.7794590749       -3.0181203833        0.8286175828
 C         2.6086581649       -3.3817639596        2.0904971463
 C         3.2799282598       -2.0138786872        2.5923700535
 C         3.2407689947       -0.8042940787        1.5986538670
 C         1.6003187940       -3.8809066298        3.1551703100
 C         3.7509912821       -4.4863074657        1.9384192722
 O         2.3137290058       -2.8439735474       -0.2862112847
 O         3.5601839470       -1.8365165376        3.7651877097
 C         3.7091491519        0.4571214507        2.4036890347
 C         2.4472328802        1.1675940722        2.9940854694
 C         2.6451813239        2.1540805411        4.1731070076
 C         1.7995659013        3.4934333573        3.7447747951
 C         2.6122988271        4.5559315568        2.9398726065
 O         1.3751501736        1.1540613159        2.4503837597
 O         0.6484653040        3.7791177584        4.0094937690
 C         2.1052778745        1.5138910881        5.4898181524
 C         4.1128274463        2.4782834510        4.4275338764
 C         2.6553823464        4.2587247755        1.4099568619
 C         4.1039810242        4.2985360851        0.9010736162
 C         4.3035474125        4.1667562266       -0.6088157626
 C         4.3778566513        2.6073097079       -0.9046845417
 C         5.7320140196        2.0040957638       -0.9001820920
 C         3.1994319550        4.6851212946       -1.5446353756
 C         5.5930086090        4.9130978916       -1.0566580101
 O         5.0891432023        4.2858918254        1.6631816090
 O         3.3548998904        1.9310160002       -0.9410691985
 C         5.8061779376        0.9472430082       -2.0448363060
 C         7.2433153147        0.4420994606       -2.0522444252
 C         7.4856842738       -1.0330931311       -1.9266310446
 C         7.1682506412       -1.3881099684       -0.3540312997
 C         8.2664317488       -1.5481983902        0.6539338963
 O         8.2130589899        1.2080406475       -1.9764996858
 O         6.0178136805       -1.6735137000       -0.0718485871
 C         6.5058055985       -1.8850716380       -2.8534327153
 C         8.8176081358       -1.4422911085       -2.5012600990
 H        -7.7575516798       -4.5204664130       -0.6686446117
 H        -8.7060718332       -3.5911241479       -1.8710373092
 H        -7.6446875506       -4.9474718361       -2.2551585603
 H        -7.1945215534       -0.2828203369       -5.5714650941
 H        -8.2819089602       -1.3484720776       -4.6300747460
 H        -4.4899557994       -3.2533868090       -4.7774296298
 H        -4.6523611730       -4.5100188919       -3.5115746278
 H        -4.2293862564       -2.8822211070       -3.1436411867
 H        -8.2303301837       -3.3717868475       -4.3404821884
 H        -6.8931627768       -3.7872528254       -5.3983134031
 H        -7.2265842481       -4.6760430299       -4.1389276182
 H        -7.0245741616        1.3705842880       -3.7062551601
 H        -8.7095328257        1.1372912245       -4.2432649984
 H        -8.8276268050        0.8166318096        1.4199741666
 H        -7.8275698859       -0.2034055658        0.4548183220
 H        -8.1794272701        3.1852463264       -2.2934395286
 H        -9.7151574916        3.3644351732       -1.6256636638
 H        -9.6849410136        2.7173824636       -3.1679260835
 H       -11.0559465934        0.8999291954       -1.5649119470
 H       -10.3606439402        0.1663166056       -0.2854076436
 H       -10.7060112125        1.7772351498       -0.0318894469
 H        -6.8746195926        0.6125320063        2.8412405123
 H        -6.6315429105        2.1687542611        2.1124461694
 H        -3.2298400547        2.0824955842       -0.0360014791
 H        -2.1737410422        2.6944451387        1.2373583682
 H        -4.3848657721        2.6825239040        2.4919364571
 H        -3.0673362970        1.9437657277        3.3658563063
 H        -4.6503214345        1.8251404914        3.9083350778
 H        -3.6490196861       -1.5697743828        2.4300463266
 H        -4.1389515981       -0.7609770889        3.9100547366
 H        -5.3702094446       -1.1551565379        2.8690204985
 H        -0.8310784165        2.4891281247       -0.8919494749
 H        -0.2470580778        1.3382534710        0.2505873522
 H        -0.9422094871       -3.9366085855       -0.6060986067
 H         0.4979724700       -3.3535876210       -1.3732758442
 H         0.3948918934       -1.1568608172       -3.6673229186
 H        -0.5795869633        0.2982491117       -3.5078652845
 H        -1.3820492633       -1.2317363867       -3.5201658339
 H         1.6798875134       -1.0226673193       -1.5820201696
 H         1.2671666375        0.7507819884       -1.6404832205
 H         0.9125646471       -0.1338681268       -0.1790755736
 H        -0.4467930614       -3.2140956766        1.5682124567
 H         0.0527090555       -1.7124748101        1.2324694859
 H         4.0199812774       -1.0363004724        0.8310798872
 H         2.2177134827       -0.7310707050        1.2078888663
 H         1.1081280094       -4.7718252119        2.7685878043
 H         0.8921570736       -3.1244391906        3.4565956995
 H         2.1116380813       -4.2452183984        4.0416602843
 H         4.1651673653       -4.4540103898        0.9048072639
 H         4.4102615815       -4.4165800863        2.7162330358
 H         3.2906362602       -5.4923175441        2.0312992824
 H         4.4478916307        0.2092884114        3.1111657330
 H         4.1892416105        1.1919556254        1.7887923167
 H         2.0555761453        5.4696801773        3.2200029525
 H         3.6308773784        4.7226309161        3.2471213815
 H         1.0392414198        1.6302943496        5.4519474996
 H         2.4517108113        1.9815735382        6.3165688505
 H         2.4074654533        0.5773239357        5.6164592899
 H         4.2440664313        3.5496506574        4.4497108560
 H         4.4843972699        2.0805630632        5.4083486154
 H         4.7671758490        2.0649280159        3.6930542930
 H         2.0702556132        4.9461333574        0.7788015333
 H         2.2429118044        3.2342082959        1.1825267191
 H         6.4858575212        2.7603743250       -1.1267321953
 H         6.0744017052        1.5310655679        0.0863483105
 H         2.7966605394        5.5909034842       -1.3731894115
 H         2.4051461756        3.9055747111       -1.5277300508
 H         3.5387805603        4.7650721736       -2.5551055887
 H         6.1540218123        4.5778363697       -1.9917837379
 H         5.3739066290        5.9744715486       -1.1441327775
 H         6.3493267764        4.9761507517       -0.2368241161
 H         5.1278688598        0.1445574763       -1.6459014777
 H         5.3639673019        1.1343370691       -2.9861348732
 H         9.0882029496       -2.1219382663        0.1881755894
 H         8.7941667647       -0.6028334405        0.7479938727
 H         7.9247187748       -1.9451529562        1.5768202878
 H         5.4801811961       -1.7675680778       -2.4815162378
 H         6.8282213420       -2.9574501611       -2.9017871520
 H         6.5535412090       -1.3995057377       -3.8278262669
 H         8.7872939715       -1.1427563055       -3.5733614580
 H         9.5829927932       -0.9579365104       -1.9334258620
 H         9.0151338754       -2.4761997187       -2.3459715453
 Na       -3.9918857527       -1.1310912326       -1.5317225235
