155

 C        -7.5050968164       -3.8224933373       -1.8616996803
 C        -6.4721482457       -2.8402107675       -2.3138183817
 C        -6.2403451298       -2.8227494407       -3.9082671116
 C        -6.3934459910       -1.3337407298       -4.2322172644
 C        -7.7395334556       -0.7340048509       -4.7238406518
 C        -4.7941564927       -3.3596441365       -4.2264562555
 C        -7.2365440769       -3.6086693402       -4.8087089719
 O        -5.7884846616       -2.1947939225       -1.5678654203
 O        -5.5312020271       -0.5320263933       -3.8694074549
 C        -8.3260511045        0.4741022565       -3.9764740112
 C        -8.7443889802        0.1573656377       -2.5550883573
 C        -9.2936409535        1.1950566944       -1.5517434644
 C        -8.1627556232        1.4384854593       -0.4853632763
 C        -7.8279243629        0.3197164459        0.4439246854
 O        -8.7665458131       -0.9785382543       -2.1949783736
 O        -7.6241071297        2.5504138537       -0.4729330238
 C        -9.6634158439        2.6179589088       -2.1624040445
 C       -10.5550029332        0.6069915488       -0.9493573117
 C        -6.6916396152        0.6640720087        1.4882560176
 C        -5.3951783128        0.1928950042        0.9260119633
 C        -4.2297113728        0.1380438640        2.0604640506
 C        -2.8683982959        0.0940248072        1.2860663368
 C        -2.0834521540        1.3968371782        1.1506185822
 C        -4.3652022607        1.4309548020        3.0094183510
 C        -4.3550434334       -1.1878965578        2.8322406328
 O        -5.0883714201        0.0826036046       -0.2367221438
 O        -2.5337088707       -0.9219402692        0.7204494236
 C        -0.9977156525        1.4027562253        0.0317154138
 C        -1.5004752964        0.7011292556       -1.2374767365
 C        -0.6890437811       -0.4739929378       -1.9054215061
 C        -1.0441767826       -1.8715900204       -1.3243668007
 C         0.0464977696       -2.7036706431       -0.8354294322
 O        -2.5525015373        1.0168843651       -1.7280367128
 O        -2.2045812925       -2.2845590613       -1.4564982982
 C        -0.9775676057       -0.5422417861       -3.4698937398
 C         0.7624468687       -0.0542961649       -1.7122396166
 C         0.7327293992       -2.3926659505        0.5948113502
 C         2.1686680794       -2.9667697599        0.6129926348
 C         2.8285363197       -3.0993921646        2.0228372560
 C         3.2802828849       -1.7104057345        2.6921055444
 C         3.6906269570       -0.4637735854        1.7122181100
 C         1.9686973462       -3.8814076387        3.0517277561
 C         4.0707337950       -4.0083435411        1.8996210893
 O         2.6804011268       -3.1934934183       -0.4402259882
 O         3.0697102768       -1.5373306079        3.8525124896
 C         4.0657608382        0.7629133789        2.5741312508
 C         2.7982064324        1.4714820722        3.0629167070
 C         2.9064571148        2.2950150889        4.3603898156
 C         2.1011518252        3.6695761240        4.2051661874
 C         2.4001130316        4.7032368962        3.0814617631
 O         1.6892036950        1.3924027988        2.4894591087
 O         1.2729119338        3.9278366507        5.0302351422
 C         2.3551085918        1.4626487346        5.5644913978
 C         4.3678004550        2.5507730464        4.6729307067
 C         2.4700046932        4.3096694928        1.5507922435
 C         3.8741810739        4.6016755059        0.9096648320
 C         3.8712788844        4.1626051436       -0.6439316702
 C         4.4242065622        2.7651423125       -0.6853783913
 C         5.8755639844        2.6005388800       -1.2868507462
 C         2.5651167884        4.0750449646       -1.5077778527
 C         4.8539316092        5.2469839594       -1.4237075001
 O         4.8255534186        4.9965415075        1.5261722709
 O         3.7393502232        1.8366686748       -0.3401737199
 C         6.1849371651        1.0528633056       -1.6377468889
 C         7.5892983801        0.4683554472       -1.2978857499
 C         7.6072614444       -1.1535954626       -1.1848034618
 C         6.9722844562       -1.8192695791        0.0985796447
 C         7.3003744588       -1.2396752208        1.4588249712
 O         8.5976539233        1.1096216067       -1.2316800649
 O         6.3734460110       -2.8702112108       -0.0938954472
 C         6.8632881735       -1.7287053783       -2.3553151682
 C         9.0798553810       -1.7096857681       -1.3545856603
 H        -7.3752266964       -3.7783959304       -0.7492112447
 H        -8.5612576501       -3.5298881852       -2.1032191745
 H        -7.2284694907       -4.8326687295       -2.2864131926
 H        -7.7544555095       -0.5429878833       -5.7825529978
 H        -8.3401712615       -1.5850369196       -4.6630034557
 H        -4.6474847707       -3.2564574248       -5.2695730634
 H        -4.7449048234       -4.4601124977       -4.0287434325
 H        -3.9389820115       -2.8551982660       -3.6891241603
 H        -8.2520039957       -3.5969034476       -4.3884216614
 H        -7.5492440335       -3.1567819167       -5.8202002784
 H        -6.9577026123       -4.6908903754       -4.8097448865
 H        -7.7013919445        1.4718826236       -4.0481675162
 H        -9.2249366892        0.8162283467       -4.4301494020
 H        -8.7304553455       -0.0331148299        0.9804687119
 H        -7.4782477726       -0.4737402645       -0.1963273817
 H        -8.8319525861        2.9593983670       -2.8941642417
 H        -9.8096555893        3.4718160829       -1.3636218270
 H       -10.5009184055        2.5055789165       -2.8306494060
 H       -11.4988259283        0.8119681357       -1.5090442356
 H       -10.4291435857       -0.4894808993       -0.8304540440
 H       -10.8233648805        1.1154849433        0.0127080291
 H        -7.0030194813        0.2160519998        2.4567255845
 H        -6.6811619155        1.7676470875        1.6130588847
 H        -2.8554119373        2.1033217436        0.8370786892
 H        -1.6260789482        1.8130092610        2.0241590528
 H        -4.0220610914        2.3857133412        2.6365450493
 H        -3.5738505821        1.3105635331        3.7930041443
 H        -5.3177671860        1.5765690778        3.5261900198
 H        -4.0348051267       -2.0036416319        2.1546395363
 H        -3.9359374236       -1.1264554174        3.8567262108
 H        -5.3795672161       -1.5420335685        2.8201179435
 H        -0.7628659299        2.4959595649       -0.1389976709
 H        -0.0970717511        0.8912839501        0.4399662904
 H        -0.0506477817       -3.7964865692       -0.8334850645
 H         0.7765231606       -2.5412193325       -1.6159202504
 H        -0.1401962979       -0.9742749773       -4.0564360855
 H        -1.2534877599        0.4890539619       -3.8348600248
 H        -1.8649223081       -1.1880543123       -3.6634336904
 H         1.3647055749       -0.7632642050       -2.3130627990
 H         0.7381204332        0.9493839777       -2.1350032992
 H         1.0464619231       -0.0950048775       -0.7064942958
 H         0.1203693913       -2.8797500130        1.3728649593
 H         0.7700292379       -1.2768411312        0.8244596305
 H         4.4732002786       -0.8131351833        1.0440927360
 H         2.7588618946       -0.3429999051        1.1766974379
 H         1.4258636817       -4.6762169928        2.5411075748
 H         1.1307496040       -3.2484550744        3.5250775853
 H         2.6305311137       -4.2427398098        3.7815430989
 H         4.5684315274       -3.8428448830        0.9506006831
 H         4.8118987722       -3.8123554428        2.7364974470
 H         3.6265555535       -4.9596721951        1.9291222012
 H         4.5258728400        0.3021790852        3.5094189263
 H         4.8055754015        1.4969569940        2.0885190895
 H         1.7077565722        5.5760384973        3.2912768133
 H         3.3938445392        5.0992590105        3.2956902319
 H         1.3144307251        1.1417742135        5.4331924387
 H         2.3145871910        2.1964706924        6.4418507547
 H         2.8309953263        0.4076521710        5.7768201442
 H         5.0123099581        1.7551060177        4.3172161652
 H         4.7394081342        3.4244757087        4.0907544571
 H         4.5039585467        2.6397119505        5.7060350355
 H         1.7068905707        4.8175275232        1.0266009637
 H         2.3110459018        3.2505165433        1.4184809907
 H         5.7933620390        3.1962434153       -2.1456756581
 H         6.7661337284        3.0051947759       -0.7530897948
 H         1.9897060770        5.0646446784       -1.5257928505
 H         1.8725927489        3.3321657072       -1.2124335308
 H         2.8667138483        3.7424224393       -2.5649204447
 H         4.9609249098        5.0918909116       -2.5138933685
 H         4.4772947367        6.2111633363       -1.2988425283
 H         5.8557340915        5.1288556632       -0.9943969726
 H         5.3991000497        0.4730010815       -1.0306675961
 H         5.9218200408        0.9292320409       -2.6419747965
 H         8.3985608798       -1.1279111615        1.6056104664
 H         6.8350981588       -0.2586677160        1.4996531624
 H         6.9334219233       -1.8440107479        2.3128648321
 H         5.7895745896       -1.5046589919       -2.3603525710
 H         6.9661429241       -2.8201950918       -2.4680266817
 H         7.3783045827       -1.3131051836       -3.1812289874
 H         9.3978544558       -1.9065094337       -2.3720001360
 H         9.7371116937       -0.8607507890       -0.9908862497
 H         9.2127613109       -2.6696703627       -0.8187485986
 Na       -3.9629528231       -0.7999840981       -2.1733519588
