155

 C        -7.4819564133       -4.2116658300       -2.1478023328
 C        -6.2758029274       -3.3064364118       -2.7200181079
 C        -6.2668148037       -2.7017846546       -4.1924702611
 C        -6.3882701635       -1.1586585002       -4.0499371733
 C        -7.3027128244       -0.2828053120       -4.8635891277
 C        -4.8077172363       -2.8672529924       -4.7445498922
 C        -7.3547696771       -3.5573455437       -5.1075356100
 O        -5.4704672086       -2.9646991151       -1.9072790941
 O        -5.6627703490       -0.6085109116       -3.2477277983
 C        -8.0139855488        0.7328894821       -3.9666186572
 C        -8.7303440313        0.0319016140       -2.8309157489
 C        -9.4563948505        0.8598399452       -1.6782380272
 C        -8.3278018233        1.1908586052       -0.6732463639
 C        -8.0589487184        0.0523330993        0.4763711965
 O        -8.7809520518       -1.2025482655       -2.8673874722
 O        -7.7067671675        2.1892037558       -0.7585335496
 C       -10.0076248229        2.2001077046       -2.2583432376
 C       -10.5878619103        0.0862157926       -1.0438107390
 C        -6.9598196701        0.5224783417        1.4466225222
 C        -5.5480372750        0.2044967476        1.0096044913
 C        -4.4748677156        0.0700800167        2.0381881390
 C        -3.0325409386       -0.1088760468        1.2594433666
 C        -2.0706743126        1.0867632144        1.3446312294
 C        -4.5452818438        1.1095367386        3.2093948566
 C        -4.8006582650       -1.3357718934        2.6466742398
 O        -5.3002348445       -0.1749646993       -0.1038506017
 O        -2.7478733718       -1.1366098695        0.6335194503
 C        -0.9169548272        1.1306666056        0.2457867770
 C        -1.4293132999        0.7463848492       -1.2190091868
 C        -0.3967686028        0.0197520860       -2.1633258635
 C        -0.6753449520       -1.5751421689       -1.9881850142
 C         0.3823291357       -2.6841168494       -1.6133682140
 O        -2.5323364159        1.0306119771       -1.5936527310
 O        -1.8099691954       -1.9843193684       -2.0917281805
 C        -0.8288832362        0.2179704934       -3.5996172269
 C         1.1214391946        0.4170268129       -1.8594560837
 C         0.5510282350       -2.8838961994       -0.1104605832
 C         2.0458599574       -2.9285011147        0.4116202598
 C         2.3021263524       -3.2424836420        1.8782745026
 C         2.6803788194       -1.8323641645        2.5766452782
 C         3.8351939490       -0.8076228425        2.1706458923
 C         1.0234905292       -3.7194170520        2.6508832812
 C         3.3919028233       -4.3749308853        2.1178681777
 O         2.8726034348       -2.5691715856       -0.4315390489
 O         1.9888453409       -1.4343727541        3.5089330722
 C         4.1367879119        0.1624501063        3.2757146681
 C         3.1590449663        1.4128234737        3.4258767811
 C         3.2398425891        2.5266596433        4.4673586111
 C         2.2649057562        3.6196103314        3.9250202805
 C         2.8282180474        4.8252468170        3.0992192783
 O         2.2486768534        1.5891449453        2.5876447945
 O         1.0786093364        3.6676100686        4.1784565395
 C         2.7787346910        1.9637637538        5.8318392575
 C         4.7738121241        2.9237554376        4.6626545999
 C         2.5700160591        4.5329639167        1.6268662757
 C         3.7941214164        4.6735927671        0.7158567102
 C         3.7001610021        4.2370818911       -0.7317646068
 C         3.9608564747        2.6601874007       -0.9436093539
 C         5.4782120524        2.3010550592       -1.2502855813
 C         2.3151313542        4.6372467706       -1.3305811270
 C         4.8412485536        4.9384810564       -1.5951861293
 O         4.8528326054        5.0984963491        1.2176480861
 O         3.1430752904        1.8691672042       -0.5456075060
 C         5.8412233111        0.8205645140       -0.9420970643
 C         7.3538165569        0.7245866543       -0.6042230640
 C         8.0666169521       -0.7409336414       -0.6456811696
 C         7.5507204816       -1.7469700911        0.5566075028
 C         8.2999054235       -1.7021726617        1.8530521742
 O         7.9458915626        1.7326290292       -0.1839314534
 O         6.8031557587       -2.6588188103        0.3452503036
 C         7.8251254759       -1.4046536398       -1.9958391253
 C         9.5751627656       -0.5104227438       -0.3340448907
 H        -7.2811085054       -4.3594053572       -1.1384135594
 H        -8.3103923356       -3.6015610939       -2.2390395864
 H        -7.7361900458       -5.1184944691       -2.6836773404
 H        -6.7368220495        0.3885203945       -5.5408238918
 H        -7.9951730295       -0.9612119211       -5.3716797535
 H        -4.7961658381       -2.2872355759       -5.6314858414
 H        -4.5929306754       -3.8883683618       -5.0060275290
 H        -4.0107914901       -2.4208127310       -4.0918581062
 H        -8.2808549985       -2.9479623733       -5.2725241603
 H        -6.8596153923       -3.7769232854       -6.0020380741
 H        -7.6835418491       -4.4998259394       -4.6936263271
 H        -7.3249404036        1.4803519710       -3.5328724274
 H        -8.8098305149        1.1874650829       -4.5534265647
 H        -9.0329719315       -0.1293137860        0.9440947783
 H        -7.7071628772       -0.8882121182        0.0559885615
 H        -9.2245334734        2.7942407471       -2.6641875597
 H       -10.5575957814        2.8586343199       -1.6829965919
 H       -10.6662254594        1.9022824100       -3.1133514481
 H       -11.3881749526       -0.2064667960       -1.7733850725
 H       -10.2497644190       -0.7830588749       -0.5710556794
 H       -10.9054003504        0.7031400108       -0.2694048514
 H        -7.0678528049        0.1663414435        2.4455813190
 H        -7.1341185671        1.6145625376        1.4832144903
 H        -2.6554074481        2.0127658840        1.2805111726
 H        -1.4898614344        1.2202137040        2.2246346494
 H        -4.3835004529        2.0729262209        2.8175589279
 H        -3.7105530634        0.7421764279        3.8451922914
 H        -5.4470930333        1.1168859131        3.8328440167
 H        -4.1957320101       -1.9738508438        2.1535118060
 H        -4.4756785663       -1.5416242496        3.6581276477
 H        -5.9079657684       -1.4369721447        2.7079781964
 H        -0.4608685225        2.1118619448        0.2937026188
 H        -0.1187110507        0.4204437206        0.5018632682
 H         0.0375927000       -3.6261007491       -2.1257905653
 H         1.3226337154       -2.3552045419       -2.0021215093
 H        -0.2679385030       -0.4606376175       -4.2410338226
 H        -0.6140775166        1.1557655091       -3.9264600351
 H        -1.8648662335        0.0587459538       -3.8242150284
 H         1.7033346342       -0.0207291307       -2.6608010571
 H         1.1924125037        1.4696072797       -1.8857891093
 H         1.4355983912        0.0607298314       -0.8283188235
 H         0.2162975458       -3.9044486418       -0.0271610556
 H        -0.1277607715       -2.3038897617        0.4768900213
 H         4.7041246990       -1.4082380133        1.8512857814
 H         3.5939381393       -0.2714377373        1.2552274690
 H         0.5718858856       -4.4939492786        2.1034894184
 H         0.3855450477       -2.8770370782        2.8121852911
 H         1.2563367508       -4.0745941594        3.7430122930
 H         4.2504610558       -4.3382706864        1.4806201253
 H         3.6356019832       -4.3022569976        3.2177564301
 H         2.9496831824       -5.3206980732        1.9587378178
 H         4.2691878927       -0.3385077828        4.1984323075
 H         5.0463044639        0.6221462286        3.0086060587
 H         2.1653549614        5.6864023247        3.3899750946
 H         3.8501784574        5.0820388565        3.2286263977
 H         1.7134150619        1.6474242559        5.7048419929
 H         2.8398074613        2.6395454548        6.6951349666
 H         3.3719445857        1.1862976818        6.2207456422
 H         4.8745409800        3.9497381729        5.0079218805
 H         5.2183444769        2.2606416233        5.3817862574
 H         5.3670498206        2.7478281192        3.7439194353
 H         1.7503753653        5.2234224232        1.3091823197
 H         2.1843464698        3.4902898278        1.4429899773
 H         5.7634094219        2.5333950673       -2.2488135927
 H         6.1091413261        2.9530102429       -0.5951373447
 H         2.2110839212        5.7232379376       -1.3560882487
 H         1.4684764337        4.2488293235       -0.7523078715
 H         2.1606622198        4.2973969057       -2.3186120881
 H         4.6884204251        4.3590184603       -2.4773390652
 H         4.7004202810        6.0608445345       -1.8306844143
 H         5.8010282972        4.8633157611       -1.0648234420
 H         5.3102896693        0.5616072902        0.0712330170
 H         5.5548456280        0.1384412457       -1.7311432312
 H         8.9113327333       -2.5807097625        1.9084387315
 H         8.8974005775       -0.8067367961        1.8787290551
 H         7.6952413329       -1.5888146645        2.7619638400
 H         6.9306803292       -2.0012097734       -1.9887547006
 H         8.6303557485       -2.1110207448       -2.0870523833
 H         7.6960951207       -0.7128960305       -2.8768815906
 H        10.0402909786       -0.2119255053       -1.2204922834
 H         9.6786460475        0.2927446994        0.4213106442
 H        10.1049932788       -1.3433020615        0.1521074856
 Na       -3.8649692786       -1.1600612633       -1.5062834015
