155

 C        -0.5082820578      -11.3249984774        1.0663727522
 C         0.4174645611      -10.2487321807        1.5033885225
 C        -0.0448186352       -9.4498138058        2.9070894640
 C        -0.4346850546       -8.0014175290        2.4704210951
 C         0.6639772458       -6.9727712395        2.1869213022
 C        -1.3753482174      -10.0222236469        3.5828473543
 C         1.2171951901       -9.5293538522        3.7960231513
 O         1.3292253489       -9.7883337078        0.8857215696
 O        -1.5419990450       -7.7059777567        2.1563826589
 C         0.0546546464       -5.7726331332        1.3746617854
 C         0.9525927114       -4.9017801024        0.4402286627
 C         0.3226987776       -3.6891541121       -0.3443756446
 C         1.2978184406       -2.4652920357       -0.2929062761
 C         2.2270988824       -2.2093138911       -1.3684163255
 O         2.1530865320       -5.0482360601        0.2441759422
 O         1.1021326624       -1.6751544183        0.6437909913
 C         0.2074840947       -4.2262239411       -1.7925272708
 C        -1.0273317052       -3.2821697414        0.1308374405
 C         3.2055483451       -1.1241660133       -1.0857530098
 C         2.4647548731        0.2285062566       -1.0129436410
 C         3.0363298719        1.4612467091       -0.1895359531
 C         3.8028207292        2.2835224079       -1.3822651889
 C         5.3097149255        2.3499233223       -1.4373127177
 C         2.0471183586        2.3645664704        0.5395142332
 C         3.9878293535        0.8342607678        0.8411713372
 O         1.5314043689        0.3703175858       -1.8107073724
 O         3.2437967004        3.0795455597       -2.0880522366
 C         5.9713713410        2.4293817620       -2.7999024663
 C         5.5210114428        1.4280534445       -3.7692279908
 C         6.1820681839        1.3389790691       -5.2436310663
 C         5.1495671008        2.2300837844       -6.2354421488
 C         3.8931288818        1.5497999482       -6.7781843909
 O         4.7286073846        0.5619834822       -3.4948417281
 O         5.4344317597        3.3892646996       -6.2513289921
 C         7.5805218281        1.9439196871       -5.3685521036
 C         6.2050414951       -0.0881954665       -5.6874656052
 C         2.6227125358        2.4555060022       -7.1496626056
 C         1.7192400156        2.9422106172       -5.9568477394
 C         0.6197143049        3.9238863844       -6.1992001598
 C        -0.7579545913        3.5907077860       -5.3719281162
 C        -1.8765481662        4.6528132563       -5.4482834853
 C         1.2237854116        5.3132169521       -5.7901954524
 C         0.1669681823        3.7304518337       -7.7190447453
 O         2.0188443926        2.4811040251       -4.8737073726
 O        -0.9689546038        2.5276757690       -4.8563064779
 C        -2.7508033892        4.7050268136       -4.2499672889
 C        -1.9977649684        4.5765616649       -2.9577684716
 C        -2.6065356816        4.1202828943       -1.5473084168
 C        -2.0395069270        2.6669392404       -1.0587587076
 C        -2.8237565144        1.6861740777       -0.2231941020
 O        -0.8094807149        4.6491489768       -3.0140317810
 O        -0.9550347385        2.2473063666       -1.4258753609
 C        -1.9809661980        4.9420016904       -0.3996183082
 C        -4.2280992565        4.1810288859       -1.5717627961
 C        -3.4521320955        2.1508818773        1.1500495270
 C        -2.4922026562        2.0207102119        2.4094143552
 C        -3.0923185038        2.4641574029        3.8471410194
 C        -4.5138202676        1.7789203133        3.9990337211
 C        -4.5573469410        0.4816863836        4.8580903827
 C        -2.0084602800        2.0065035211        4.8259765332
 C        -3.2939416578        4.0213690338        3.8863043272
 O        -1.3507562693        1.6895893050        2.2021762148
 O        -5.4537569675        2.1508307904        3.3426934286
 C        -5.9528555233        0.4955828587        5.5875029082
 C        -5.9064015662       -0.3096382631        6.8952775656
 C        -7.1098416859       -0.2558287653        7.8065638488
 C        -7.4617261091        1.3150909714        8.2080761320
 C        -6.7315668701        1.8336373983        9.5046252946
 O        -4.8866766528       -0.8889479375        7.2334418770
 O        -8.2942469051        1.9090637108        7.5903363938
 C        -8.2873444116       -0.9177112661        7.0244921783
 C        -6.7836623029       -1.0680456748        9.0813616612
 H        -0.2198503971      -11.9086936557        0.2876090953
 H        -0.9297296407      -11.9220345903        1.8569121336
 H        -1.4309453702      -10.7910616165        0.6123354139
 H         1.1050495892       -6.6163608514        3.1325561977
 H         1.3310878084       -7.6030150051        1.6655029961
 H        -2.1789308636       -9.7433571652        2.9703171145
 H        -1.4819141680       -9.4413136244        4.4853306781
 H        -1.2512644545      -11.0398693071        3.8019770202
 H         2.0818605850       -8.9152965571        3.4161183847
 H         0.9501901476       -9.0834068924        4.7718503823
 H         1.4733373483      -10.4654977813        4.1342192071
 H        -0.8106614968       -6.0817040350        0.7318535487
 H        -0.3099104257       -5.1225357437        2.2339705779
 H         2.8274052409       -3.0270186826       -1.8560640993
 H         1.6569197603       -1.9013485592       -2.3038030017
 H         0.1417326852       -3.4207102198       -2.5525009450
 H        -0.6835958692       -4.8228110999       -1.8271533035
 H         1.0138954669       -4.8834185139       -1.9989485492
 H        -1.7558829330       -4.0916963837        0.4241934103
 H        -0.8890980074       -2.6164027663        0.9867854483
 H        -1.6067931564       -2.8274699453       -0.6387937041
 H         3.8210407643       -0.9368833918       -1.9146338757
 H         3.9955294521       -1.3157364716       -0.3667652823
 H         5.5453920675        3.2829733076       -0.9007182271
 H         5.7625780111        1.5892153032       -0.7989070318
 H         1.1441807567        2.4231122817       -0.0355811930
 H         2.5910694182        3.4016135315        0.7164682630
 H         1.7768127334        1.8826771796        1.4700232881
 H         3.4047524832        0.2574342955        1.4973204592
 H         4.9409247900        0.2831944895        0.5764690615
 H         4.3377178772        1.6312016910        1.4560777819
 H         5.7933094862        3.4080767384       -3.2360258971
 H         7.0832819541        2.4749824363       -2.6137234235
 H         4.2670060981        0.9885301746       -7.6773121060
 H         3.5066248409        0.7712511951       -6.0369551918
 H         7.6590729196        2.6721609713       -6.1742668922
 H         8.3370357228        1.1734356470       -5.5439676113
 H         7.9386747910        2.3263614712       -4.4541564471
 H         6.4833718250       -0.1973889235       -6.7012038479
 H         6.9732843045       -0.5865328036       -5.1020069178
 H         5.3018693103       -0.6286347950       -5.5616101189
 H         2.0968985440        1.7259180153       -7.8530436912
 H         2.9301371580        3.2163084563       -7.8823413034
 H        -1.2258211308        5.5062632471       -5.6442537869
 H        -2.4988375560        4.3882852559       -6.3402195798
 H         2.1615792045        5.1640823143       -5.3027968060
 H         0.6261931763        5.9997433578       -5.4148013117
 H         1.4145871831        5.8940560762       -6.6882160175
 H        -0.8143650121        4.2437288327       -7.8362511975
 H         0.8681207527        4.2629309866       -8.3477767710
 H         0.0250834936        2.6880699989       -8.0028011100
 H        -3.3622674961        5.6398173880       -4.1573099266
 H        -3.5880600682        3.9607340495       -4.3338353701
 H        -3.6697674816        1.4429719576       -0.8423796045
 H        -2.1528449673        0.8025366882       -0.1924872699
 H        -0.8555832977        5.0527850471       -0.3807611192
 H        -2.1984628393        4.4962039698        0.5364201111
 H        -2.3791120200        5.9262330137       -0.4005543890
 H        -4.8017587756        3.9057449445       -0.7094226616
 H        -4.4130795890        5.2163888907       -1.9438032510
 H        -4.6557967417        3.6186719105       -2.3080938738
 H        -4.2736598089        1.4916383583        1.3225318337
 H        -3.6746124021        3.2318440732        1.0013763808
 H        -4.5720288196       -0.3804822401        4.1030707713
 H        -3.6759012018        0.2605164384        5.5001917527
 H        -1.8946083798        0.9445761434        4.6081173410
 H        -2.4180502002        2.0207968696        5.8365016190
 H        -1.0885749671        2.5975987348        4.6155733040
 H        -3.5202861133        4.3656016366        4.9342036000
 H        -2.3138176176        4.3926548172        3.6871420392
 H        -4.0449543267        4.4272712107        3.1951384925
 H        -6.0379269466        1.5174370300        5.8999158376
 H        -6.7876949846        0.3806804689        4.9203020018
 H        -5.9216167295        1.2213965571        9.7545247759
 H        -6.4514837947        2.8473067015        9.4519324055
 H        -7.4781046436        1.8466543751       10.2716235150
 H        -8.9975415539       -0.1352393747        6.7375474712
 H        -8.8645057055       -1.6052288325        7.6063070917
 H        -7.9276423817       -1.3778443613        6.1584259454
 H        -7.4428630766       -1.0138122659        9.9276028622
 H        -6.7404399357       -2.1598182255        8.8024405610
 H        -5.8464720581       -0.7810568799        9.5339038462
 Na        0.8629820809        2.4098077895       -2.9102711074
