155

 C        -6.8558097604       -4.4358790124       -3.6401002759
 C        -5.7563411725       -3.5222005605       -3.5403741546
 C        -5.3912369982       -2.5749313641       -4.7676471353
 C        -5.6945143653       -1.0132081098       -4.4216746019
 C        -6.8565492305       -0.2792376180       -4.9902603137
 C        -3.7883365803       -2.6577625661       -4.8886057257
 C        -6.0486407241       -3.0875664259       -5.9812156166
 O        -5.2098955113       -3.3993478748       -2.4549542779
 O        -4.9335504516       -0.4999643779       -3.6036288977
 C        -7.6996485213        0.5525051944       -3.9194525860
 C        -8.4207749742       -0.4257190621       -2.8590917776
 C        -9.3514801899        0.1764163785       -1.7400461883
 C        -8.4224193450        0.4973540944       -0.5165525864
 C        -8.1947639778       -0.6878932870        0.5623949782
 O        -8.1502403742       -1.6688215270       -2.8953668272
 O        -7.8416633413        1.5555342449       -0.4294284605
 C       -10.0431971576        1.4512653344       -2.1660598709
 C       -10.4246992241       -0.9250550639       -1.3204588832
 C        -7.2159993259       -0.3331775223        1.7087078215
 C        -5.7114095426       -0.6560208122        1.1672866617
 C        -4.4843260606       -0.5185515913        2.1795299174
 C        -3.1537551038       -0.6497455418        1.3038200861
 C        -2.2644290433        0.5268162431        1.4091785672
 C        -4.5969338367        0.6961845607        3.1215568435
 C        -4.5942047899       -1.8108723453        3.0072632196
 O        -5.6102996559       -0.9799032795        0.0438294730
 O        -2.8548120355       -1.6435678247        0.6239045359
 C        -1.3484234278        0.6688748708        0.2745471676
 C        -2.0148957045        0.5325954576       -1.1081159436
 C        -1.0217581405        0.2383304453       -2.2610952446
 C        -0.8217499967       -1.3643641107       -2.3506245209
 C         0.5750163687       -1.9759419386       -2.4947327394
 O        -3.1909788195        0.3221938924       -1.3531492964
 O        -1.7624182567       -2.1031299515       -2.1299620665
 C        -1.6658487469        0.7347510986       -3.5909745303
 C         0.3812795617        0.9513107235       -2.0950728421
 C         0.6232238638       -3.1597839514       -1.4604575900
 C         0.8716681461       -2.4244947631       -0.1089877139
 C         0.6878048994       -3.1304887792        1.2777424337
 C         0.8057171384       -2.1992064072        2.4604905595
 C         2.1103104152       -1.5035266318        2.7491141470
 C        -0.6947995042       -3.9030164693        1.2380894031
 C         1.8833252390       -4.1147916745        1.5102551789
 O         1.1052887368       -1.2269209119       -0.0876190569
 O        -0.1653148599       -1.9971567429        3.1547472448
 C         1.8496437922       -0.0527730536        3.2802503107
 C         3.2104708585        0.6484398459        3.3971744440
 C         3.1658769949        1.9930951948        4.3420051078
 C         2.6608001792        2.9316720043        3.1568350777
 C         3.5733101240        3.5914726429        2.1487678087
 O         4.1508069005        0.2057611414        2.8398821847
 O         1.4074027217        3.0039471766        3.0050044560
 C         2.2032970629        2.1184180932        5.5786471030
 C         4.5941419232        2.3160464929        4.7039602250
 C         3.0850994082        3.6702157874        0.7147260850
 C         3.6380977704        5.0018011370       -0.0280489195
 C         4.4557687366        4.8144353747       -1.2590089409
 C         5.4060290291        3.5569208944       -1.2439356740
 C         6.4701495915        3.4657163862       -0.0364810503
 C         3.5502386828        4.7801138257       -2.5523053491
 C         5.3333273503        6.1599615906       -1.4885164364
 O         3.2408159455        6.0960175888        0.3699031087
 O         5.3967835127        2.6175482374       -2.0333765974
 C         6.9479567671        2.0673705646        0.2706095429
 C         8.0838812425        2.0586382454        1.3517252823
 C         8.6772148773        0.6081187176        1.7430402496
 C         7.6693713367       -0.4423986902        2.3294893080
 C         6.8699507370       -1.3479024996        1.4074978412
 O         8.5367274876        3.0945954026        1.8781324942
 O         7.6573514627       -0.7641737959        3.5090629397
 C         9.3343012728        0.0812065538        0.3903125620
 C         9.9457506193        0.9878669067        2.6139539392
 H        -6.9457264573       -4.9422831511       -2.6427803610
 H        -7.8530744575       -3.8618460676       -3.7826376191
 H        -6.7885034460       -5.0050464183       -4.5799915739
 H        -6.5161336820        0.4385136492       -5.7385870934
 H        -7.6210986838       -0.9103225630       -5.4742773117
 H        -3.3954162058       -2.2720119642       -5.8460253222
 H        -3.4756841727       -3.7079800990       -4.8867183124
 H        -3.3614084737       -2.1689168728       -4.0936676649
 H        -7.0824692594       -2.7124750903       -6.0598553436
 H        -5.6908091913       -2.5918649881       -6.9233637520
 H        -5.9756391721       -4.2041910173       -6.0076931796
 H        -6.9392020495        1.2129449334       -3.4853136704
 H        -8.4950841350        1.2194578444       -4.3043855775
 H        -9.2374375453       -0.7652068442        1.0066297520
 H        -7.9265121116       -1.5835807853        0.0448160409
 H        -9.2317916624        2.2695558945       -2.2802527183
 H       -10.7978465867        1.8030114097       -1.3566547031
 H       -10.6398407024        1.3041293017       -3.0355003722
 H       -11.1952613915       -0.9637044731       -2.0720713072
 H        -9.9656907152       -1.8750288087       -1.1345398615
 H       -10.8765013457       -0.5224637948       -0.4309945095
 H        -7.2837016854       -0.9105291808        2.6900482507
 H        -7.2316844241        0.7266982580        1.9433034367
 H        -2.7949569324        1.4899570831        1.5464261478
 H        -1.7357269499        0.2964183875        2.3969878507
 H        -4.5095819348        1.6210514992        2.5753007085
 H        -3.7570587524        0.7530045449        3.7297627719
 H        -5.5042908339        0.8009320104        3.6699971151
 H        -4.3376779180       -2.7422320745        2.4725445872
 H        -3.8154999590       -1.9101405838        3.6707110276
 H        -5.4456506020       -1.6688013849        3.6287236404
 H        -0.9452655143        1.6796428737        0.1867107041
 H        -0.4829696946        0.0563159014        0.2743375449
 H         0.4593020156       -2.5272141470       -3.4828200931
 H         1.4743870091       -1.3801620086       -2.5022777431
 H        -1.1757107381        0.3000269081       -4.3940736018
 H        -1.4985890066        1.8413357829       -3.6065959210
 H        -2.7001211333        0.5237972555       -3.6388667187
 H         0.9404748879        0.9384500129       -2.9899979986
 H         0.3226247105        1.9730491903       -1.8613114277
 H         0.9854422869        0.4292207200       -1.3701789245
 H         1.4838318497       -3.7763437107       -1.6228825062
 H        -0.3707916768       -3.6798281330       -1.3767061619
 H         2.6410996135       -1.9922817948        3.5897716227
 H         2.7097581525       -1.5211778474        1.8377052335
 H        -0.6656104070       -4.8580442168        0.5617521667
 H        -1.4362750621       -3.2270802765        0.8096462895
 H        -1.0658965957       -4.2581284355        2.1450178022
 H         2.8523289836       -3.5515995283        1.6257021155
 H         1.8248067491       -4.7294088552        2.3604196936
 H         1.9748908510       -4.7599329383        0.6537270034
 H         1.2576113594        0.5383295735        2.5363056860
 H         1.2303665398       -0.0880629928        4.2219063323
 H         3.6692675461        4.6488383407        2.4951357704
 H         4.5310706361        3.1067835022        2.1646380156
 H         1.0957945686        2.2920960001        5.3404186420
 H         2.5075158744        3.0665609892        5.9456217994
 H         2.3408045681        1.2619078776        6.2350053986
 H         5.1559249927        2.5462479514        3.7769175590
 H         4.7640296452        3.0342785167        5.4753867012
 H         5.1373127967        1.3628091776        4.9445955977
 H         1.9928050703        3.7873592744        0.6897651124
 H         3.3982889218        2.8020565134        0.1762880063
 H         7.4177164025        3.9672087611       -0.1328447501
 H         5.8474374481        3.8395689390        0.7782269934
 H         2.8496734019        5.6137909187       -2.5613350944
 H         2.9189088237        3.8275885265       -2.4282093377
 H         4.1435287055        4.7828978641       -3.4878936074
 H         5.4045440492        6.4470752004       -2.5036282493
 H         4.7446296576        6.9045635368       -0.9276538318
 H         6.3382497864        5.8871242224       -1.2834005712
 H         6.1849990380        1.3809716348        0.6733078358
 H         7.4112771508        1.5615663366       -0.5702252627
 H         7.2612478445       -1.4895739108        0.4201708277
 H         6.6280303987       -2.3525518941        1.8130210555
 H         5.8686178435       -0.9260912196        1.2509140880
 H         8.5188638920       -0.2409929436       -0.3239543525
 H         9.7721279331       -0.8902052766        0.6189790368
 H        10.0872848526        0.7108576276        0.0883648056
 H        10.5999165899        0.1627549818        2.8594159582
 H        10.5565427840        1.7227121021        2.0871987204
 H         9.6028367820        1.4545664706        3.5616310060
 Na       -3.9406419463       -1.7887496234       -1.7629760925
