155

 C        -6.4387605555       -4.4586774004       -2.5314202025
 C        -5.4308101740       -3.5185822191       -3.2478176935
 C        -5.5748871119       -2.8883683030       -4.7016691986
 C        -6.1187633747       -1.4984576431       -4.5788383389
 C        -7.6135863336       -1.2271113175       -4.8688863221
 C        -4.1882533534       -2.8929485049       -5.2939863552
 C        -6.3959286895       -3.8233452151       -5.6106777360
 O        -4.4686094105       -3.1891004098       -2.6025159377
 O        -5.4026543846       -0.6764979561       -4.0746520033
 C        -8.2493259185       -0.1830977714       -4.0413040324
 C        -9.0441127874       -0.9126621896       -2.9238238355
 C        -9.7536209513       -0.1662094486       -1.7730181188
 C        -8.8948968445       -0.2854007874       -0.4767190432
 C        -8.5355356195       -1.6189268677        0.0909942503
 O        -9.1273784073       -2.0696158376       -2.9481830288
 O        -8.4869300717        0.7610490441        0.0352819927
 C       -10.0227855989        1.3317320837       -2.0973189578
 C       -11.0377940463       -0.9070288945       -1.3582358673
 C        -7.3148820108       -1.4762591015        0.9731677326
 C        -5.9165750108       -1.3365282289        0.1562095741
 C        -4.8047153120       -1.1356456875        1.2291594102
 C        -3.6573188490       -0.4071133016        0.4508648141
 C        -3.4203165721        1.1380118919        0.5823888890
 C        -5.3496082037       -0.2602402891        2.4332134001
 C        -4.1906351312       -2.4199747324        1.7288274759
 O        -5.8584691449       -1.2852724262       -1.0364362770
 O        -2.9081814983       -1.1202642644       -0.2077492548
 C        -2.1223399860        1.5027062697       -0.1745624917
 C        -2.1367102082        1.2734683663       -1.6655746201
 C        -0.7043886099        1.0899858131       -2.3729251306
 C        -0.3975847651       -0.5312514909       -2.2140319918
 C         1.0547811517       -1.0532185721       -1.8101954768
 O        -3.1120602380        1.1108173567       -2.4068704182
 O        -1.2291344431       -1.3237205927       -2.6033097119
 C        -0.8382717044        1.3969805398       -3.8847675169
 C         0.4611608071        1.9126063853       -1.7514333482
 C         1.0698623252       -2.5446661921       -1.2235921522
 C         0.3141319255       -2.6840558602        0.0505006740
 C         0.5323899257       -4.0934060015        0.8933113762
 C         0.5507514092       -3.4970772515        2.3563280831
 C         1.6979541736       -2.5839642678        2.8478882473
 C        -0.6118993791       -4.9490588840        0.7993244026
 C         1.9466847024       -4.7755098574        0.5778860461
 O        -0.3630690699       -1.8217341488        0.5895948453
 O        -0.2488930368       -3.8363334201        3.2256038728
 C         1.2769794959       -1.1194282470        3.1972676573
 C         2.5362452759       -0.2321154769        3.1431565962
 C         2.4679432488        1.3056293398        3.4007462592
 C         2.7557626227        1.9084507193        1.9688098336
 C         3.9340229063        2.9448314662        1.7928065679
 O         3.6157821637       -0.7392990482        2.9227499885
 O         2.1743679775        1.5257208617        1.0231162240
 C         1.1054677991        1.9776922238        3.7368772074
 C         3.4575280004        1.6115710154        4.4973712640
 C         3.5137601957        4.0549581783        0.7908760044
 C         4.5631488376        5.1502567794        0.4106923370
 C         5.6328151635        4.9838963147       -0.7506120405
 C         6.7968886045        4.1849477221       -0.2394405952
 C         7.9339892604        4.9009219656        0.4411062515
 C         4.9193881304        4.2084171534       -1.9989744824
 C         6.1762366915        6.2885166320       -1.2331796555
 O         4.4477892730        6.1641743130        0.9993606579
 O         6.7502039623        2.9815691340       -0.3301151783
 C         8.8240543337        3.8306114780        1.0354431273
 C         8.2222129670        3.2976824849        2.3371964737
 C         9.0222821582        2.2287995128        3.1547488259
 C         7.9132897510        1.2003774416        3.6172378804
 C         8.4833860328        0.0774272930        4.6356987521
 O         7.1362984387        3.6978022670        2.7087371052
 O         6.7194964041        1.2324766144        3.4064431025
 C         9.9274138329        1.4939235256        2.1926322125
 C         9.7752066314        2.8056189966        4.4118335837
 H        -6.3877943777       -4.4094107147       -1.3801569427
 H        -7.4944006779       -4.0450945907       -2.7458538717
 H        -6.4468137442       -5.5188568498       -2.9825770431
 H        -7.6161575725       -1.1646289927       -6.0104991795
 H        -8.1397305450       -2.1653938044       -4.7301360098
 H        -4.1513861685       -2.4229186678       -6.2326289763
 H        -3.7396349746       -3.8892847597       -5.3308878089
 H        -3.5370002273       -2.4149370119       -4.5495691685
 H        -7.3614488497       -4.0625536352       -5.1672481947
 H        -6.4611722584       -3.3444511377       -6.6095028392
 H        -5.6565307046       -4.6379663711       -5.9225417879
 H        -7.5001765505        0.4752525790       -3.6150012678
 H        -8.9218317354        0.5334846306       -4.6344599857
 H        -9.4506480174       -1.8345846698        0.7053516776
 H        -8.4374688664       -2.5726663521       -0.5226738047
 H        -9.0880520112        1.9149347959       -2.4395785915
 H       -10.4154829701        1.7649394069       -1.1143404695
 H       -10.7524386785        1.4503553969       -2.8818805992
 H       -11.9599919537       -0.4324741441       -1.7231782082
 H       -11.1774381038       -1.8663473384       -1.7578607923
 H       -11.1724517314       -0.9539651092       -0.3428208702
 H        -7.2678354820       -2.4092392125        1.5642971999
 H        -7.6334534278       -0.6159057179        1.6027793294
 H        -4.2555993863        1.6371338122        0.0059424353
 H        -3.4914455155        1.4592886064        1.6652222111
 H        -5.8468796706        0.6001049032        2.0394092492
 H        -4.5379579057        0.0152532247        3.1476435061
 H        -6.0236800040       -0.7700442156        3.1103451682
 H        -3.7879264621       -3.0347984528        0.9702526351
 H        -3.2822232802       -2.2498031626        2.3493294123
 H        -4.8457307787       -2.8431932735        2.4903726266
 H        -1.8412295735        2.5183036805       -0.0631299076
 H        -1.3101314650        0.8477401051        0.1703175152
 H         1.7344392757       -0.8880515019       -2.6663722411
 H         1.5188599217       -0.4559705249       -0.9864564819
 H         0.1335485575        1.4996246246       -4.2102183253
 H        -1.3655274341        2.3166488516       -4.1336146310
 H        -1.3254307385        0.5479460924       -4.2372440127
 H         1.2759653026        1.8848159651       -2.4731772814
 H         0.0910104127        2.9389875616       -1.6359974198
 H         0.8719286381        1.5808990645       -0.7295189623
 H         2.1486343449       -2.8251235127       -1.1203524627
 H         0.6370125477       -3.2290494242       -1.9261246853
 H         2.1744595041       -3.0601732293        3.7709243992
 H         2.5868513942       -2.5234758856        2.1118175548
 H        -0.9642255409       -4.9836653043       -0.2724864060
 H        -1.3634499008       -4.4186714660        1.2973665770
 H        -0.4121621267       -5.9958286194        1.0752227538
 H         2.7300920651       -4.1203315562        0.7537346864
 H         2.0733490443       -5.6710484454        1.2375472709
 H         2.0121514129       -5.0198175704       -0.4776349539
 H         0.5433095613       -0.8144312213        2.4585257025
 H         0.8561539643       -0.9506429158        4.2052758221
 H         4.2204111290        3.4236177741        2.7256015909
 H         4.7781650660        2.4264666786        1.3810704585
 H         0.4740147087        2.0175132133        2.7610396491
 H         1.2212036176        2.9550940589        4.1790352636
 H         0.4160835802        1.4545599496        4.4160315630
 H         4.2563659049        0.9009663249        4.5304539853
 H         3.8633135444        2.6362549705        4.4749355706
 H         2.9495717458        1.5817202907        5.4304402434
 H         2.7938420507        4.6583359140        1.3503433588
 H         3.0395429533        3.6051030740       -0.1190970159
 H         8.2472463583        5.5221706943       -0.3892252535
 H         7.5640977543        5.5389867994        1.2260076830
 H         3.8750044651        4.4005257005       -2.1196148016
 H         5.0143979865        3.0639668505       -1.8045290818
 H         5.4147675892        4.3746938965       -2.9081565910
 H         6.7423999913        6.8207644145       -0.5832785076
 H         6.7084382298        6.4294770913       -2.2015651657
 H         5.3711315259        6.9887312848       -1.3634875709
 H         8.8951082978        3.0575511431        0.3263418972
 H         9.8790318321        4.0959724172        1.3867188178
 H         8.1170492678       -0.9083474380        4.2310843805
 H         9.5542952737       -0.0587615136        4.7803531774
 H         8.0156332341        0.2385181157        5.6151369940
 H         9.5063668017        0.9778804544        1.3259446943
 H        10.6021192094        0.7844214659        2.7903282884
 H        10.5028926912        2.2979487441        1.7431047104
 H         8.9840099637        3.2339509290        5.0205279067
 H        10.3021604773        1.9692228129        4.9015232001
 H        10.5547424333        3.5455651005        4.1012855083
 Na       -3.8212538203       -1.0335127770       -2.4058572714
