155

 C        -6.3715757971       -4.8542227691       -2.9438728641
 C        -5.4101754895       -3.7263462528       -3.4505095244
 C        -5.5090103608       -3.1138812829       -4.9332614987
 C        -6.3290873279       -1.7981633300       -4.6323845487
 C        -7.7684810531       -1.6038467326       -5.3029869384
 C        -3.9801870129       -2.6745782879       -5.4051488733
 C        -6.0670418438       -4.1016077925       -5.9899429500
 O        -4.5706712179       -3.2602758776       -2.6978725779
 O        -5.8840887086       -0.8610190279       -3.9911236690
 C        -8.5723067249       -0.6584827634       -4.4956792950
 C        -9.0957691649       -1.2952666102       -3.2147740208
 C        -9.9544841565       -0.5320185442       -2.1837208153
 C        -8.9007987350       -0.2491546303       -0.9480120390
 C        -8.3887036494       -1.5266097339       -0.1292857929
 O        -8.6226647849       -2.4103319899       -2.8824172179
 O        -8.5554964833        0.8568947152       -0.7195531500
 C       -10.4215603841        0.8709649727       -2.6079646984
 C       -11.1611698843       -1.3769476894       -1.6298870219
 C        -7.3199676785       -1.1398359092        0.9295250671
 C        -5.8863553842       -1.0824246921        0.2539579358
 C        -4.7343594520       -1.1336093818        1.3207125404
 C        -3.3581599488       -0.5781008403        0.7249455317
 C        -2.8500685791        0.9166150412        1.0862708912
 C        -5.2513920503       -0.2772933424        2.5924689509
 C        -4.5362043642       -2.6431480540        1.8437282646
 O        -5.8561584768       -1.1063128799       -0.9335594120
 O        -2.7590081806       -1.1803839330       -0.1557031769
 C        -1.7266783713        1.3478725597        0.0871986648
 C        -2.1750945083        1.1884373141       -1.3355531262
 C        -1.1103453690        1.1408948039       -2.5205845552
 C        -0.7164183780       -0.2876528208       -2.7145906284
 C         0.6458276104       -0.8913150646       -2.1217698129
 O        -3.3754853457        1.0967573349       -1.5947648337
 O        -1.4937830500       -1.1077537593       -3.2546211519
 C        -1.8661470420        1.7119176655       -3.7843789204
 C         0.0597640037        2.0832376342       -2.2582366590
 C         0.7022567014       -2.3435034521       -1.6587207162
 C         0.2926740556       -2.4848418747       -0.2302051144
 C         0.3214381463       -3.8745929707        0.4803538762
 C         0.5273709058       -3.4326416717        1.9905266433
 C         1.9302100537       -2.7354040254        2.5365479904
 C        -1.0992196145       -4.6271501942        0.1583662766
 C         1.4785607254       -4.8172573385        0.0282105796
 O        -0.1594313875       -1.5115541372        0.3078281128
 O        -0.3880599149       -3.5209225299        2.7662964171
 C         1.6277612169       -1.3016122990        2.9175560616
 C         3.0192853597       -0.5666943383        3.0884052804
 C         3.1339751053        1.0527749467        2.9443873906
 C         2.9292570289        1.2956332291        1.4496585745
 C         3.9550925018        1.9372237147        0.5832494601
 O         4.0312404952       -1.2166544333        3.2594187242
 O         1.8166029598        1.0443293180        0.9189246949
 C         2.0482321193        1.8221058629        3.6721256437
 C         4.5465659425        1.5010347143        3.4447162082
 C         3.5921403810        3.4667129238        0.7281023317
 C         4.7501742112        4.5974818230        0.6819198098
 C         5.8517598359        4.7954767431       -0.4577108306
 C         7.4178387636        4.6569823935        0.0904219158
 C         7.7484465891        5.5611368464        1.2496721114
 C         5.6472099208        3.6657147495       -1.5144953171
 C         5.6906724113        6.1778369092       -1.0595014514
 O         4.7254281414        5.4148181716        1.5342943573
 O         8.0877985649        3.7776058453       -0.3990934857
 C         8.7031513288        4.9601479321        2.3539040715
 C         7.9222201167        3.7942074611        3.1268366524
 C         8.8008250192        2.7742213388        4.0113937728
 C         7.7910262313        1.8262997291        4.9511060248
 C         7.0060176168        2.5164210523        6.1297013053
 O         6.7419291367        3.6196812380        2.9483061915
 O         7.6699978744        0.6838718281        4.5895116182
 C         9.5783706147        1.9940844326        3.0422141654
 C         9.6982873664        3.6592196158        4.9822653795
 H        -6.5976457890       -4.8206335305       -1.8160005276
 H        -7.2714070877       -4.8901426925       -3.6213516225
 H        -5.8756413009       -5.9214494243       -3.0269353126
 H        -7.4478924319       -1.1649876760       -6.2208804010
 H        -8.2178601547       -2.6492612488       -5.4391415766
 H        -3.7138193672       -2.9560392926       -6.4225656960
 H        -3.3548419170       -3.3027694059       -4.8551050540
 H        -3.7115579770       -1.5792726533       -5.3062581366
 H        -7.0525786895       -3.7294052309       -6.3143327078
 H        -5.5226096392       -4.1521253405       -6.9762058510
 H        -6.2103499098       -5.1515061687       -5.5827261630
 H        -7.8712647233        0.1005820761       -4.1137697281
 H        -9.3719277241       -0.1722270629       -5.0709565609
 H        -9.3215181973       -1.9608022942        0.4130670599
 H        -7.9593918445       -2.2634041669       -0.8160061517
 H        -9.5302425931        1.5940259247       -2.7024228543
 H       -11.1373179261        1.1987623484       -1.7878687099
 H       -11.0184046114        0.8374176574       -3.5119704974
 H       -12.0781883543       -1.0546912665       -2.1238467796
 H       -10.9928689489       -2.4129141133       -1.9102032894
 H       -11.3144710485       -1.4734654162       -0.5996273473
 H        -7.3901017544       -1.7963099854        1.8547310409
 H        -7.7139039672       -0.1773123329        1.2881978617
 H        -3.6428459939        1.7116100993        1.0419149600
 H        -2.5140740235        0.9318641748        2.1703368278
 H        -5.0670463405        0.7102238156        2.2920959575
 H        -4.6127989978       -0.5036943950        3.4359061895
 H        -6.3373858631       -0.4879260278        2.7365682475
 H        -4.7110327263       -3.3697195003        1.1059509012
 H        -3.5680571061       -2.6928460882        2.4326424379
 H        -5.4154566729       -2.8290611478        2.4692652611
 H        -1.4763345366        2.3976669778        0.3233120061
 H        -0.7718821004        0.8875619707        0.2051829100
 H         1.5199220092       -0.8394454132       -2.8107801236
 H         0.8425145159       -0.2479358706       -1.2877495632
 H        -1.2614440998        1.6740985895       -4.6520773844
 H        -2.1892290471        2.6971316209       -3.4954896636
 H        -2.7149044359        1.1095592100       -3.9949984716
 H         0.8816921163        2.1028449887       -2.9799788605
 H        -0.3308947875        3.1367362898       -2.3115783354
 H         0.5698527494        2.0250962546       -1.2424269218
 H         1.7155542329       -2.5978917736       -1.7753008328
 H         0.0026866420       -2.8330122083       -2.3925287590
 H         2.2433459055       -3.3370599735        3.4324777060
 H         2.7149289356       -2.7339047873        1.7307494509
 H        -1.5768866104       -4.2001869979       -0.7366696452
 H        -1.6574149454       -4.6460141468        1.0669870011
 H        -0.9438146639       -5.7153565274        0.0062713247
 H         2.4371732514       -4.4107524910        0.1316151355
 H         1.4797378805       -5.6435380311        0.7681321886
 H         1.3751654379       -5.2699187244       -1.0213378208
 H         1.1026615614       -0.7679460259        2.0922088367
 H         0.9825718408       -1.2409030290        3.7987688334
 H         5.0157851318        1.8341445095        0.8729029820
 H         3.8652162064        1.5593137848       -0.4062776842
 H         0.9858124349        1.6431644801        3.2476234705
 H         2.1304773060        2.9024379116        3.5245934457
 H         1.9881764571        1.5221329883        4.7371370020
 H         5.2787637649        1.5124394932        2.7075348797
 H         4.4672003469        2.5194279512        3.7426425729
 H         4.9759372018        0.8787259441        4.2209205074
 H         3.0721974957        3.5875743907        1.7281431756
 H         2.7678391412        3.8055830442        0.1050511699
 H         8.0432566489        6.5086168459        0.8118766288
 H         6.8095456885        5.7662432103        1.7720824656
 H         4.7307261546        3.4789503993       -1.9722516567
 H         6.0311850337        2.7777056167       -0.9408003897
 H         6.2565016704        3.7768553602       -2.3495557304
 H         5.3663532382        6.8663806776       -0.3612349948
 H         6.4698805336        6.7741137760       -1.6143519641
 H         4.8941185576        6.2401967395       -1.7408468521
 H         9.5695858136        4.4880721361        1.7831941416
 H         9.0421528106        5.5491575325        3.1610496543
 H         6.2791764032        1.7551844220        6.4407344510
 H         7.6576001468        2.7124511452        6.9789765982
 H         6.4540335376        3.3988542163        5.8220994970
 H         9.4386559155        2.3064109929        2.0010336031
 H         9.1946235208        0.9016605879        3.0097840929
 H        10.6330465813        1.8889900939        3.2599459909
 H         9.3425608818        4.7020480489        5.1056113764
 H         9.7522639964        3.2054965837        5.9887400681
 H        10.6219821686        3.7728802986        4.4975551769
 Na       -4.0391698496       -1.0558310501       -2.3069647110
