155

 C        -6.4205146895       -5.1245223923       -3.8573251117
 C        -5.4648910815       -3.9331292876       -3.7126783340
 C        -5.1822579860       -3.0814378889       -5.0175851284
 C        -6.1014723752       -1.8217414968       -4.8099643692
 C        -7.4476952821       -1.7562333144       -5.4827969397
 C        -3.6654405310       -2.5950264905       -5.0996682160
 C        -5.4155060761       -3.8203158542       -6.3819894327
 O        -5.2021926086       -3.4644861519       -2.6423380830
 O        -5.6206019863       -0.9044288142       -4.2035115279
 C        -8.3183559600       -0.9007410866       -4.6569954373
 C        -8.6455277458       -1.5948677772       -3.2215178303
 C        -9.7707300911       -0.8981957701       -2.1867480432
 C        -8.8996814593       -0.2982864483       -1.0193869783
 C        -8.7575309393       -1.0518120390        0.3021255033
 O        -8.1758373786       -2.6638582022       -3.0485126819
 O        -8.3478751660        0.7984826610       -1.1930319516
 C       -10.5791604304        0.2878650562       -2.7797388623
 C       -10.7241271733       -2.0546202709       -1.7874796507
 C        -7.5731288307       -0.5377818205        1.1185926680
 C        -6.1681919128       -0.9068487843        0.5828392746
 C        -4.9832702614       -1.0398965813        1.5241000829
 C        -3.6761559650       -0.5175358938        0.7869208112
 C        -3.1416648337        0.8530304907        1.0591298988
 C        -5.1029347322       -0.3360746956        2.8868721604
 C        -4.9481271480       -2.6376410571        1.9105570370
 O        -6.0643723026       -1.0581677598       -0.6185648365
 O        -3.1872959733       -1.2306016642       -0.1274897026
 C        -1.9059616321        1.1912152022       -0.0203275621
 C        -2.5115313208        1.0851958040       -1.3704891836
 C        -1.5633820958        0.9782782949       -2.6780345765
 C        -1.1960612619       -0.5831928952       -2.7845147835
 C         0.2380231477       -0.8743038299       -3.0173366552
 O        -3.7259690155        1.1063880395       -1.5242540597
 O        -2.0260936458       -1.4652806249       -2.6256126044
 C        -2.3548377002        1.4437972912       -3.9209293816
 C        -0.3399847933        1.8318795728       -2.4188588051
 C         0.6117354064       -2.1889819532       -2.3618157800
 C         0.3618480929       -2.2860754313       -0.8443380619
 C         0.1178943529       -3.6489932602       -0.1182064474
 C         0.5058237380       -3.4348856090        1.4889419740
 C         1.9160704037       -2.8768106403        1.8220729487
 C        -1.3543466693       -3.8346491328       -0.3367378704
 C         0.8769389812       -4.8522263784       -0.8275503742
 O         0.1692368278       -1.2648776275       -0.2055290958
 O        -0.3488995691       -3.6273401969        2.3336076832
 C         1.8466737763       -1.5298978307        2.6380298416
 C         3.2398462159       -0.9854089054        3.0032417163
 C         3.5008889384        0.6007913374        2.8690439138
 C         3.4706227379        0.9532348342        1.3404798385
 C         4.6231172750        1.8918283851        0.7971484423
 O         4.1725502298       -1.7365171631        3.1563450722
 O         2.5215706071        0.6847203456        0.6375053847
 C         2.3828025468        1.4352966694        3.5347106369
 C         4.7923932932        0.8278752357        3.6759224037
 C         3.9358155438        3.2483564570        0.4022089699
 C         4.7652499520        4.5293376892        0.5680839940
 C         5.9852178590        4.7901290607       -0.2037165437
 C         7.2656787567        4.7564583747        0.7762526384
 C         7.2416777938        5.7365046645        1.9991438867
 C         6.3689520004        3.8634254649       -1.4096807939
 C         6.0055548038        6.1980632851       -0.7455868003
 O         4.3030671414        5.4006404835        1.2674019345
 O         8.2401410696        4.1880369129        0.4361652831
 C         8.2909219126        5.4006700255        3.0388669079
 C         7.9000264188        3.9561660056        3.4619308561
 C         8.7504179189        3.2255942230        4.5825342546
 C         7.8612941704        2.9152848222        5.9295013931
 C         6.5649155766        3.7727046671        6.2049820489
 O         7.0312189897        3.3330310624        2.8163612649
 O         8.2561318336        2.2422721303        6.8145369615
 C         9.3836242964        1.9850959590        4.1027734529
 C         9.9138082121        4.2067248213        5.0458108541
 H        -6.5307857709       -5.7614083310       -3.0592416321
 H        -7.3762812796       -4.7079047971       -4.0569900620
 H        -6.1130580713       -5.6932931433       -4.6372500069
 H        -7.2241374429       -1.4738337087       -6.5156718274
 H        -7.7796700637       -2.8146175294       -5.3767234407
 H        -3.1896844229       -2.2561697039       -4.2251377208
 H        -3.6194561295       -1.7832742621       -5.8684154920
 H        -3.0997557184       -3.3495785334       -5.6439634926
 H        -4.5276313042       -4.1065047659       -6.8427023621
 H        -6.0054865074       -4.7057501711       -6.2143012204
 H        -5.9999412512       -3.2912371389       -7.1721968428
 H        -7.8974764360        0.0458009134       -4.4078224320
 H        -9.3032458344       -0.7109283228       -5.1744235267
 H        -9.6921355162       -0.7447186879        0.8531144085
 H        -8.7684779752       -2.1277320897        0.1349812087
 H        -9.9393880274        1.0787691046       -3.0489121759
 H       -11.2481884535        0.6539717635       -2.0428874489
 H       -11.1329846387       -0.0180021962       -3.6372217182
 H       -10.5138221421       -2.4258894768       -0.7209716587
 H       -11.7601005659       -1.6897162714       -1.6766832336
 H       -10.5791639482       -2.8159886002       -2.5518087707
 H        -7.6176598878       -1.0814270216        2.1064562369
 H        -7.8127583810        0.4468367263        1.4310794443
 H        -3.8244036482        1.6635914089        1.0110976898
 H        -2.6929084783        0.6806595703        2.0418246421
 H        -4.7412474141        0.6595469893        2.6761927147
 H        -4.4611358621       -1.0002138743        3.5097737981
 H        -6.0941596494       -0.2643146596        3.2965908665
 H        -4.9805907552       -3.1493829356        0.9662831374
 H        -4.0550865121       -3.0185248148        2.3629518745
 H        -5.7799782762       -2.7492595360        2.6042727279
 H        -1.4780727265        2.1664508449        0.2250400504
 H        -1.0410542104        0.5446140501        0.0376966181
 H         0.3402029997       -1.0075785511       -4.1208571287
 H         0.8678358022       -0.0242548046       -2.7888228877
 H        -1.7195402709        1.3696858535       -4.8265763772
 H        -2.6286716259        2.5722492375       -3.9815097070
 H        -3.3184133312        0.8834365754       -4.0555642889
 H         0.4172445055        1.7905838124       -3.1378262518
 H        -0.6114819563        2.8479038876       -2.3754080554
 H         0.1391363988        1.6529543393       -1.4502979904
 H         1.6697279601       -2.4626247860       -2.4322756802
 H         0.1593699858       -3.0475584348       -2.9363604638
 H         2.4923953924       -3.6014219967        2.3686443414
 H         2.4920465489       -2.7999868757        0.9330801569
 H        -1.8567700379       -4.8483145290       -0.4492661938
 H        -1.4357450757       -3.3932639148       -1.2947585803
 H        -1.8688241801       -3.3323206489        0.4517389554
 H         1.9230539719       -4.7362132076       -0.8021057180
 H         0.5933851865       -5.8026740780       -0.3335355705
 H         0.5975970741       -4.9452424440       -1.8822370245
 H         1.3980889249       -0.8165841723        1.9985540577
 H         1.2430500873       -1.6370843627        3.4828898327
 H         5.4003104137        2.1749567636        1.5624485396
 H         5.1061073577        1.3978402511       -0.0516088147
 H         1.4523673133        1.1633139171        3.0881458594
 H         2.6084524481        2.5583679069        3.3038697495
 H         2.3792773767        1.2439838509        4.6552598859
 H         5.5800548452        0.1005294506        3.3796245289
 H         5.1832169691        1.8851071453        3.5218935902
 H         4.4841568477        0.7810031307        4.7357242750
 H         3.0587572117        3.3655830711        1.0688676702
 H         3.7123708338        3.2321715481       -0.6270799188
 H         7.3990964242        6.7178418760        1.5751164405
 H         6.2507607261        5.7263779893        2.4856291179
 H         5.6420130045        3.7397669705       -2.2355923797
 H         6.5322820157        2.8615451783       -1.0270123669
 H         7.3897997395        4.1766468260       -1.6298431798
 H         5.6775123684        6.9751410658       -0.0604352264
 H         6.9157649563        6.6404730362       -1.1056765839
 H         5.3134803851        6.3111426350       -1.5775571440
 H         9.3040774594        5.4915233196        2.5792611895
 H         8.3306885352        5.9214626782        3.9537831045
 H         6.2652803915        4.3940800459        5.3218354124
 H         5.7726072744        3.0882896667        6.4615690827
 H         6.7549451330        4.3719570885        7.0970960707
 H         9.9498153898        2.0199278455        3.1561760967
 H         8.6592999030        1.2135820218        4.0456471656
 H        10.0618059754        1.6377869175        4.8229087856
 H        10.5722877390        3.6449687169        5.7073567733
 H        10.6303458433        4.3943359257        4.1696068638
 H         9.5736168623        5.1953716570        5.3879704696
 Na       -4.2839576037       -1.3329870810       -2.2531707662
