155

 C        -6.2532522458       -5.4720029136       -4.0026722678
 C        -5.7077923533       -4.0787404044       -3.9777373280
 C        -5.7224746537       -3.1450278826       -5.2319858471
 C        -6.0323485604       -1.6358661119       -4.7625646205
 C        -7.0907772619       -0.7173269131       -5.4265395697
 C        -4.3646562988       -2.9639785071       -5.8038441149
 C        -6.6372126316       -3.7269131944       -6.2887813131
 O        -5.1246125936       -3.6918631808       -3.0160001960
 O        -5.3696885854       -1.1993017262       -3.8660334928
 C        -8.3961537277       -0.5877884718       -4.5606177295
 C        -8.9141595209       -1.7327915291       -3.7828148467
 C       -10.1472294536       -1.4727332167       -2.7652601338
 C        -9.3418792187       -0.7716870786       -1.3977246247
 C        -9.0298667686       -1.6841012080       -0.1407347906
 O        -8.4270516258       -2.8938029850       -3.7239603568
 O        -9.0359371939        0.3555669724       -1.4208271296
 C       -11.1212799595       -0.3548059387       -3.2779987738
 C       -10.7501640427       -2.7770257132       -2.4205143560
 C        -8.1379387502       -1.0252419975        0.8623369422
 C        -6.5910486499       -1.1101327139        0.4190926860
 C        -5.5929482718       -0.6542233873        1.4954362385
 C        -4.1957710752       -0.5415510247        0.8792747194
 C        -3.1518048378        0.5877998238        1.0193829409
 C        -6.1594061905        0.6465637610        2.1948569307
 C        -5.4378696990       -1.7780534085        2.5917541480
 O        -6.2725311750       -1.4783734137       -0.6809588455
 O        -3.7192729509       -1.5153683046        0.3373327784
 C        -2.0802254801        0.5610464541       -0.0193502823
 C        -2.7183636852        0.6467874934       -1.4963514105
 C        -1.8176334789        0.7884767576       -2.7831581428
 C        -1.4027610994       -0.6682082986       -3.0676646781
 C        -0.0337363945       -1.0101796718       -3.6821978250
 O        -3.9554170855        0.4645016153       -1.5847565293
 O        -2.1471247360       -1.6255726592       -2.9057363464
 C        -2.5220192048        1.2022775875       -4.0553188119
 C        -0.5710458219        1.6722161513       -2.6993277638
 C         0.3391998510       -2.4201739052       -3.2542450347
 C         0.4468818308       -2.3577794242       -1.6882442146
 C         0.3421263613       -3.6876377637       -0.9046078977
 C         0.8285225943       -3.4350147186        0.5989079148
 C         2.2480898804       -2.9534000331        0.7527502045
 C        -1.1228841423       -4.1553894379       -1.0574480713
 C         1.3173691126       -4.7513673183       -1.5889025274
 O         0.4578559634       -1.2664149525       -1.1496104928
 O         0.0664815971       -3.5651859741        1.5173221344
 C         2.2630808893       -1.8397435594        1.7606652708
 C         3.6673731483       -1.6059979269        2.3062909601
 C         4.1675418457       -0.1269625637        2.6684583281
 C         4.1165826778        0.6284231736        1.3295376340
 C         3.8938704421        2.0880583467        1.1933336287
 O         4.3681175306       -2.5223607273        2.5251877271
 O         4.2846320446        0.0208877202        0.2774357052
 C         3.2360741878        0.3239042884        3.8016710271
 C         5.6177355160       -0.2918814656        3.0977741389
 C         5.2342198582        3.0069651099        1.3577440566
 C         5.2606476128        4.1391192515        0.3699069626
 C         6.4556820667        5.1465393042        0.2903683797
 C         7.6430149260        5.0243524153        1.3120922616
 C         7.5517349901        5.7889210278        2.7075797608
 C         7.2088707643        5.1774237337       -1.1103192662
 C         5.9344546175        6.6087779052        0.4402479426
 O         4.3224542385        4.3866319082       -0.3160159351
 O         8.6393649210        4.4020363074        1.0290979795
 C         8.4755754527        5.2273077617        3.7362364701
 C         7.6233477882        4.7791666389        4.9084748425
 C         8.5526558175        4.3653399755        6.2635416050
 C         8.0900235105        5.1625091498        7.5312909778
 C         8.5644100039        6.6792547900        7.7399168458
 O         6.4741989770        4.5143499629        4.8994506197
 O         7.3954853246        4.7292477415        8.3798856979
 C         8.3522034826        2.8092892038        6.6062919114
 C        10.0914664474        4.6156681069        5.8888324102
 H        -5.6000519440       -6.1165657534       -3.3380665187
 H        -7.3649136961       -5.4568134200       -3.7128878801
 H        -6.3222760448       -5.9323710589       -5.0139407019
 H        -6.6757380182        0.3443835351       -5.5285425105
 H        -7.4217783730       -1.1142152702       -6.3418706329
 H        -3.7911980987       -2.6237097035       -4.9222513856
 H        -4.2532075995       -2.2489858850       -6.6004758476
 H        -4.0341621600       -3.8704171250       -6.2369850555
 H        -6.1694392081       -4.4905932822       -6.9421754381
 H        -7.5665947873       -4.0172350152       -5.8332781650
 H        -6.8686505256       -3.0039782052       -6.9876736161
 H        -8.3662273806        0.2097502970       -3.8301757386
 H        -9.2262846521       -0.3817368458       -5.3227958452
 H       -10.0269554295       -1.8047159729        0.3708879115
 H        -8.8356144455       -2.6950046216       -0.5812393247
 H       -10.7686079519        0.6834711371       -3.1413168530
 H       -12.1249057533       -0.4379757976       -2.8475437974
 H       -11.3056282798       -0.4438534294       -4.2621963842
 H       -11.6189560805       -2.5797176177       -1.8018338325
 H       -11.2315166320       -3.3665472842       -3.2166922380
 H        -9.9898499972       -3.3444911392       -1.8329095330
 H        -8.3267032903       -1.5899984004        1.8351107770
 H        -8.5459663731       -0.0055986020        0.8632302895
 H        -3.6546082248        1.5732786983        1.0499579860
 H        -2.6151632473        0.4944117379        2.0336919611
 H        -6.9768601779        1.1745448629        1.6417251275
 H        -5.4375188276        1.3909098130        2.4809803347
 H        -6.7644248116        0.5072391600        3.1057141522
 H        -4.9380537889       -2.6242655114        2.1416087772
 H        -4.7755614435       -1.4101416105        3.3993583950
 H        -6.4106813814       -2.0002668664        3.0408089956
 H        -1.3633804275        1.3123375737        0.2620342969
 H        -1.6355603883       -0.4587900602       -0.0297553298
 H        -0.1328035344       -0.8971887131       -4.7598316116
 H         0.7577671940       -0.3006354799       -3.3206123496
 H        -1.8188574331        1.0289479599       -4.9315490889
 H        -2.6545588089        2.3354121520       -4.1302385101
 H        -3.4321402996        0.6457328884       -4.3510645658
 H        -0.0205408059        1.6254091452       -3.6171888091
 H        -0.9818747550        2.6274865656       -2.5310491110
 H        -0.0450307957        1.4083013676       -1.8288818743
 H         1.2800648751       -2.6897858253       -3.7644615917
 H        -0.5029710629       -3.0253499156       -3.4152403733
 H         2.7997537506       -3.8344879626        0.9359528829
 H         2.7056157141       -2.4871370054       -0.0834035682
 H        -1.7527488938       -3.5759326750       -1.8030490387
 H        -1.4535946519       -3.9735653193       -0.0725004612
 H        -1.1620883025       -5.2206347185       -1.3668302042
 H         2.3686248694       -4.4391142145       -1.5717642056
 H         1.1639006707       -5.7561731204       -1.1995872285
 H         1.0424967141       -4.8329111934       -2.6248733603
 H         1.9038781777       -1.0146769105        1.2124420008
 H         1.7245858147       -2.0458475056        2.6280338676
 H         3.5642343971        2.3204894446        0.2125643783
 H         3.0511912506        2.4944345692        1.8164524605
 H         2.1172988101        0.3108838215        3.5250803877
 H         3.4346677426        1.4118205907        4.0340195945
 H         3.2530088206       -0.4697936740        4.6475069305
 H         6.3041675314       -0.2557497343        2.2146948844
 H         5.9060704642        0.5225310895        3.7550099937
 H         5.7194341895       -1.1646561788        3.7618276117
 H         6.0311134115        2.2589822507        1.2017938807
 H         5.5255868397        3.4643435886        2.3407847417
 H         7.8147412819        6.7887214622        2.5516353279
 H         6.5371624282        5.7320889275        3.0834451143
 H         6.4081858800        4.9320849244       -1.7118560245
 H         8.0299808438        4.4162977547       -1.2750289855
 H         7.7147877595        6.0495741237       -1.2086980763
 H         5.5437401525        6.9149425427        1.3601294107
 H         6.7945830485        7.3107125878        0.2779682458
 H         5.1808239827        6.9353949886       -0.2407573879
 H         9.0118071510        4.3233853477        3.4070328469
 H         9.2570080323        5.9570941138        3.8913650519
 H         7.6176241840        7.1910277599        7.6553365787
 H         8.9500461647        6.7909957479        8.7784980416
 H         9.2653718803        7.0907287552        6.9691117371
 H         8.5413456544        2.1655270627        5.7364017775
 H         7.2428800402        2.7419922111        7.0123704785
 H         9.0126498242        2.5508002451        7.3963663953
 H        10.7914555549        4.0830478411        6.5894978331
 H        10.4236972843        4.1311901879        4.9449497791
 H        10.1584900677        5.6961559948        5.8110777701
 Na       -4.2438444222       -1.9119198478       -2.0696168792
