155

 C        -0.2321232250      -11.7145173846        1.6924810685
 C         0.1589641086      -10.1986133160        1.6561490525
 C        -0.3652773369       -9.3125006785        2.8822197582
 C        -0.6674513042       -7.8106844125        2.5594989153
 C         0.2689638238       -6.9707526679        1.7404758877
 C        -1.5299239858       -9.9728434049        3.6357418159
 C         0.8714314851       -9.3417077929        3.8817157812
 O         0.8861041676       -9.8644636513        0.7715238254
 O        -1.7292550537       -7.3247803502        3.0782477422
 C        -0.4890197162       -5.7322662439        1.1387678398
 C         0.4873589610       -4.9207894101        0.1947037028
 C         0.0370624319       -3.7793499213       -0.8176529735
 C         1.2776431595       -2.7729139973       -0.6775668104
 C         2.2128835957       -2.4825909610       -1.7835641446
 O         1.6797116238       -5.2151647867        0.0606961965
 O         1.4122282339       -2.1660273644        0.3184283250
 C        -0.0866858947       -4.3484287245       -2.2638928854
 C        -1.3083973146       -3.1232274285       -0.4074218325
 C         3.0879099149       -1.3540444964       -1.4766226715
 C         2.5748809382        0.0807201315       -1.5028863118
 C         3.3075329119        1.1601246930       -0.6456136115
 C         3.8428970979        2.2463109532       -1.6904607792
 C         5.4100327871        2.5485291184       -1.7526536838
 C         2.1225083794        1.8934866010        0.0937359365
 C         4.3600718354        0.5630691651        0.2886425871
 O         1.5766283897        0.4096251231       -2.0960425888
 O         3.1318688793        2.9255279426       -2.4497232226
 C         5.7170853512        2.7394063230       -3.2209593233
 C         5.7132191738        1.3741590483       -4.0540476510
 C         6.0857851695        1.5546132935       -5.5715034867
 C         4.8852177256        2.2716498004       -6.2730084891
 C         3.8291347640        1.4113776858       -7.1095986940
 O         5.1924443428        0.3954274345       -3.5303694164
 O         4.6931827853        3.4393043859       -6.2187119590
 C         7.3573614566        2.4435000752       -5.7157029139
 C         6.3146689349        0.1389236705       -6.2586379472
 C         2.5275682467        2.3393309601       -7.3405451153
 C         1.8534828683        2.7995145941       -6.1055764389
 C         0.8269211800        3.9749512997       -6.2316247209
 C        -0.5197422494        3.5735652475       -5.3965232933
 C        -1.6023634759        4.6498797103       -4.9811298261
 C         1.3763468844        5.3258781965       -5.6421885193
 C         0.2269779031        4.1943111840       -7.7261372415
 O         2.1144127506        2.3323790225       -5.0023008004
 O        -0.6961172591        2.4539779740       -5.0025759449
 C        -2.5200502908        4.1700727743       -3.8544589302
 C        -1.8390693413        4.4127602460       -2.5155398438
 C        -2.4592221000        4.1419238695       -1.1592538740
 C        -2.0070624761        2.6532783038       -0.7182887071
 C        -3.0892493615        1.7906707999       -0.0688143370
 O        -0.5843592477        4.4098213894       -2.4881589546
 O        -0.8662983281        2.3044277251       -0.8701571167
 C        -1.9504910306        5.1046863810       -0.0687719707
 C        -3.9338775817        4.2389108780       -1.3331531095
 C        -3.7452114122        2.2799918241        1.1984981742
 C        -2.7160906042        2.2205339444        2.4953037143
 C        -3.2995409975        2.6429579748        3.9904579851
 C        -4.6183651497        1.8737346384        4.2644712699
 C        -4.5393279814        0.8124124319        5.4008261719
 C        -2.0767779340        2.4614985539        4.9102030430
 C        -3.7257507061        4.1388549567        3.8724635050
 O        -1.6817586133        1.7207451744        2.3129257067
 O        -5.6019381314        2.1491833572        3.6407430312
 C        -5.8483312928        0.1904114405        5.7553719986
 C        -5.5758264249       -0.4466225914        7.1422364649
 C        -6.7055950410       -0.1791515459        8.2676606736
 C        -6.8882874115        1.3266755718        8.4449497112
 C        -5.6651749606        2.1332473205        8.9500645488
 O        -4.5999446263       -1.1266044927        7.3568064358
 O        -7.9009763159        1.9158943315        8.0750937973
 C        -8.0659656851       -0.8632674731        7.8198026897
 C        -6.3039935968       -0.8906596204        9.5352954538
 H        -0.0134807115      -12.1885754770        0.7255321150
 H         0.4228607390      -12.1437368546        2.5090852295
 H        -1.2747945861      -11.9459702194        1.9145342909
 H         1.1183097034       -6.7327621058        2.3441467277
 H         0.6395466844       -7.6683725560        1.0011136912
 H        -2.4158638865       -9.8792300746        3.0134724977
 H        -1.5598414484       -9.4249780763        4.5394862646
 H        -1.3580247954      -10.9892507492        3.8452327700
 H         1.8581509435       -9.0484787935        3.5677253050
 H         0.6223780847       -8.6649586874        4.7069354699
 H         1.1266820500      -10.4038233945        4.1362064427
 H        -1.3120179894       -6.0195421949        0.5200362559
 H        -0.7700772956       -5.0395519997        1.9091353434
 H         2.8187197666       -3.2856041095       -2.1804337469
 H         1.6575640248       -2.1142138955       -2.6774186191
 H        -0.0692373804       -3.6539923614       -3.0269665865
 H        -1.0489434548       -4.7702339695       -2.2404853904
 H         0.6809221794       -5.1775185895       -2.3802472783
 H        -1.9653333039       -3.9332378360       -0.0949287937
 H        -1.1901107085       -2.5526008562        0.4978463392
 H        -1.7856904475       -2.4172329537       -1.1352523654
 H         3.9728506350       -1.2886535696       -2.2383069402
 H         3.8199689658       -1.3825106886       -0.6746515252
 H         5.7161012266        3.3447083364       -1.1218685078
 H         5.9253596544        1.6505591453       -1.4038524951
 H         1.6508421877        2.5414013480       -0.6308365410
 H         2.5163801481        2.4294230521        0.9843287104
 H         1.3029848868        1.2529654563        0.4930250180
 H         3.8127842208       -0.2273602021        0.8669276115
 H         5.1927746805        0.1423639926       -0.2431026743
 H         4.6957523214        1.3871276019        0.9230135666
 H         4.9195971664        3.4574637071       -3.5594947177
 H         6.6550030680        3.2500631476       -3.1653041628
 H         4.2918608796        1.0891944483       -8.0722083897
 H         3.5220473531        0.5180681393       -6.5394740507
 H         8.1779076205        2.0429587648       -6.2451164595
 H         7.7201718056        2.5791654172       -4.7554235034
 H         7.0920798777        3.4386077793       -6.0906570992
 H         5.9728000410        0.0306142966       -7.2933895948
 H         7.3382354530       -0.1185366331       -6.2952822634
 H         5.7691450310       -0.7006231945       -5.7540848571
 H         1.8568798628        1.8904981580       -8.0401278770
 H         2.8455639081        3.1265740841       -8.0095544011
 H        -0.9976500292        5.5184029475       -4.8454063954
 H        -2.1923744696        4.8649157224       -5.8283357200
 H         0.8704643519        5.7922209551       -4.8420890838
 H         1.2865705800        6.1326493189       -6.3232617775
 H         2.4382845504        5.1930885670       -5.3016427560
 H        -0.5190900941        4.9156407060       -7.6736424604
 H         1.0317997441        4.5726036324       -8.4158932088
 H        -0.0492379900        3.2783337034       -8.2776294938
 H        -3.4510239820        4.7249840301       -4.0376424163
 H        -2.8224813452        3.0808252344       -3.9572284592
 H        -3.8360791174        1.5827573628       -0.8678184257
 H        -2.4971195783        0.9358505154        0.1661179194
 H        -0.8869794424        5.1367751537       -0.0514712824
 H        -2.3417468155        4.9239786170        0.9184270718
 H        -2.3444293316        6.1275130742       -0.2677373363
 H        -4.4492186370        4.6508412652       -0.4201184402
 H        -4.1003460374        5.0974026993       -1.9685575099
 H        -4.3056196478        3.3153601956       -1.7403469430
 H        -4.6609695181        1.6401159044        1.5149058129
 H        -4.0375822046        3.3498206680        1.2513523006
 H        -3.9117955420       -0.0105274511        5.2127564721
 H        -3.9986709930        1.2105481046        6.2455842767
 H        -1.8193049990        1.4080014508        4.9689655209
 H        -2.3331372882        2.9124190591        5.8830149964
 H        -1.3131029475        3.0753505464        4.4437894741
 H        -3.5188593165        4.6678538425        4.7426111604
 H        -3.1908576508        4.7265772573        3.0638281831
 H        -4.8016351009        4.0959840160        3.7874442425
 H        -6.7341998315        0.8840630433        5.6521481735
 H        -6.0603950179       -0.6497573388        5.0986608524
 H        -5.0209708389        2.3222680229        8.0779787364
 H        -5.9761847735        3.0593266051        9.3074137523
 H        -5.0696181787        1.5620338525        9.6450787147
 H        -7.9502645361       -1.3404631002        6.8939159533
 H        -8.8902648294       -0.2121028334        7.8583851048
 H        -8.3832022176       -1.6189138966        8.4909415845
 H        -7.0000814649       -0.8164191828       10.3266561944
 H        -6.1545715228       -1.9261437770        9.3547468015
 H        -5.3332286397       -0.6595655465        9.9786109083
 Na        0.7340550271        2.5241252083       -2.6901099886
