155

 C        -7.1206562250       -5.1867215514       -3.9564546353
 C        -6.0450338171       -4.0954817647       -3.9504982312
 C        -5.8655088211       -3.2175347195       -5.3058596825
 C        -6.5563176127       -1.7613047600       -4.9148119223
 C        -7.7132083820       -1.1642662594       -5.6992329022
 C        -4.4486478580       -2.9496392004       -5.6555915013
 C        -6.4355764210       -3.8432487488       -6.6692712105
 O        -5.6099137424       -3.6147356701       -2.9057261845
 O        -5.9455403534       -0.9904856960       -4.1826561546
 C        -8.5774917056       -0.5309576599       -4.6614465931
 C        -9.1230029498       -1.6990412485       -3.6688770511
 C       -10.3069969667       -1.6409569075       -2.7715317189
 C        -9.4934390466       -1.0850592608       -1.3835205825
 C        -8.9741455291       -2.1415736726       -0.3621939039
 O        -8.4016266054       -2.6079915411       -3.6527230639
 O        -9.1842062176        0.1036131777       -1.2846307063
 C       -11.3725974057       -0.5714235941       -3.1002601748
 C       -10.9077314038       -3.0759817066       -2.6406281433
 C        -8.1239307417       -1.5999656909        0.7712770034
 C        -6.6855945005       -1.3004261245        0.2040841881
 C        -5.6512479580       -0.6121131646        1.2194139282
 C        -4.1890490118       -0.8558524894        0.6011303534
 C        -3.1839299507        0.2655662214        0.7207279159
 C        -6.1131901399        0.8069045712        1.3934615952
 C        -5.7868263157       -1.3521128294        2.5931056546
 O        -6.4510338169       -1.6192144843       -0.9303973486
 O        -3.9416921279       -1.8731617669       -0.0400382160
 C        -2.1268163514        0.1498330735       -0.3906491121
 C        -2.8021344180        0.5616590325       -1.6839440512
 C        -1.7825110323        0.7850854361       -2.8374721308
 C        -1.4319647242       -0.6694673770       -3.3130804576
 C        -0.0226355155       -0.9862565612       -3.8940905441
 O        -3.9651609867        0.6830764619       -1.8672846070
 O        -2.1933753291       -1.6176219119       -3.2689181570
 C        -2.3765841351        1.3607753602       -4.1383046801
 C        -0.4985755211        1.5377107343       -2.2985955800
 C         0.4396744586       -2.3224011016       -3.2569635932
 C         0.5290759326       -2.2727295025       -1.7348257544
 C         0.6025924572       -3.6301686593       -1.0238633938
 C         1.3333921235       -3.5609676549        0.4471603221
 C         2.7730932688       -3.0556203113        0.6001952161
 C        -0.8390133263       -4.1158077439       -0.8923771505
 C         1.5611738216       -4.5673612840       -1.9390829896
 O         0.3636755852       -1.2351313810       -1.1053658236
 O         0.5914305964       -3.8046937771        1.3740946886
 C         2.7304697504       -1.9981590854        1.7767462321
 C         4.1834717188       -1.8980740480        2.4051109121
 C         4.6376384478       -0.3184524084        2.6604745459
 C         4.4951145986        0.4633804183        1.3027081457
 C         4.5445367695        2.0729596712        1.4055625337
 O         4.9306141361       -2.8106642934        2.5214175800
 O         4.4678383191       -0.1569228738        0.2200420650
 C         3.8563302123        0.2626049802        3.7835612126
 C         6.1157197634       -0.2307174211        3.0565477396
 C         5.4909857968        2.6806854083        0.4149689227
 C         5.4018825229        4.1875737393        0.2686346159
 C         6.5556039819        5.2497172710        0.5390932038
 C         7.3485069122        5.0730185967        1.9144644219
 C         7.3959773817        5.9645893330        3.1240244994
 C         7.7091016521        4.9838810118       -0.5605395142
 C         5.8769200019        6.6512919983        0.4604567692
 O         4.4454321297        4.6353245720       -0.2896087795
 O         8.0510117212        4.0932550284        1.9591733176
 C         8.2079021610        5.1881548888        4.2132183002
 C         7.5312139909        5.1601516029        5.5589163343
 C         8.4424727304        4.6542611177        6.8520930211
 C         8.1708687137        5.8214788763        7.8808488007
 C         9.1953556773        7.0458870775        7.8814751982
 O         6.3608116410        5.3460754036        5.6966377489
 O         7.1254653782        5.8101733054        8.3655754445
 C         7.7541479389        3.4096903465        7.4905526647
 C         9.8902436981        4.3910335415        6.4562971507
 H        -7.9845214054       -4.8598108481       -3.2486468189
 H        -7.5870154720       -5.4186623877       -5.0011237587
 H        -6.7569581611       -6.2165473804       -3.5652045266
 H        -7.3737092275       -0.4457515191       -6.4377995302
 H        -8.4338231470       -1.8967405225       -6.1450196500
 H        -3.8606810970       -2.4998472324       -4.8558652789
 H        -4.5454369097       -2.2208372773       -6.4996273575
 H        -3.9292304953       -3.8369210829       -6.0011344180
 H        -5.9952429373       -4.8511017889       -6.7832943858
 H        -7.4514223075       -4.1276908960       -6.6675062580
 H        -6.2368604123       -3.1460044340       -7.4902942649
 H        -7.8532527963        0.1246204297       -4.1217736830
 H        -9.2884699915        0.0525134309       -5.1956131544
 H        -9.8123246038       -2.7820157401       -0.0180313358
 H        -8.3339011199       -2.8035656176       -0.9733893167
 H       -10.9578204693        0.4682590846       -2.8699050585
 H       -12.2937953735       -0.5954475772       -2.5159065939
 H       -11.6454950943       -0.5459057234       -4.1880726742
 H       -11.8854447805       -3.1064710860       -2.2059339117
 H       -10.8559635431       -3.5767970660       -3.6306826703
 H       -10.3277118040       -3.7612576206       -1.9607109091
 H        -8.0236615775       -2.3341023248        1.5956266929
 H        -8.5920185827       -0.6597196575        1.1894673999
 H        -3.6398469951        1.2794827408        0.8339782706
 H        -2.7931035153        0.0042309491        1.7102830729
 H        -6.7645749184        1.2912969695        0.6386542923
 H        -5.3568350874        1.6248571856        1.5437917635
 H        -6.6860501161        0.8839817779        2.2954185588
 H        -5.7588487350       -2.4611545424        2.4098340029
 H        -4.9729959164       -1.1785527403        3.2257329873
 H        -6.7710055230       -1.1096806681        2.9585367448
 H        -1.2202688136        0.7774111963       -0.1898512852
 H        -1.8339713759       -0.9018760400       -0.5858808645
 H         0.0616513186       -1.1510312451       -4.9599116718
 H         0.5987718172       -0.1301603438       -3.7368330509
 H        -1.6824135308        1.0866894793       -4.9854942602
 H        -2.5876952504        2.3894020848       -4.1312655147
 H        -3.3531292806        0.8875419050       -4.3732904282
 H         0.0852752562        1.8766501003       -3.1713952496
 H        -0.7696447794        2.3955306187       -1.7247046820
 H         0.0399688316        0.8310993733       -1.7641453190
 H         1.3455036740       -2.6981709889       -3.6971973228
 H        -0.4326227017       -3.0169785758       -3.4442721025
 H         3.3651979367       -3.9115577445        0.8968228419
 H         3.2275832946       -2.5538787355       -0.2250584781
 H        -1.1159022020       -4.5255537724       -1.7820845842
 H        -1.5324985466       -3.1867094390       -0.8577292522
 H        -0.8802485552       -4.6869952698        0.0155114437
 H         2.6310485874       -4.1356563150       -2.0723009690
 H         1.7296723259       -5.4996610050       -1.4311175858
 H         1.2168587219       -4.7733293389       -2.9258944949
 H         2.3084839246       -1.0062586459        1.5784835094
 H         2.0524095279       -2.4203165684        2.5627579068
 H         3.5215146069        2.4872115714        1.1185839854
 H         4.7965269380        2.4701634698        2.3548354011
 H         2.6926828284        0.2802348400        3.6069302191
 H         4.0271377123        1.3078488561        4.1184722462
 H         4.0662312905       -0.3866038502        4.6762350968
 H         6.8174042289       -0.8543373626        2.4309954237
 H         6.4350038139        0.8475876601        2.9827951647
 H         6.3118387845       -0.5644977648        4.0794605295
 H         5.3984347279        2.1375514345       -0.5540137182
 H         6.4647712861        2.5209931094        0.8279284703
 H         8.0192352197        6.8021075723        2.7533447340
 H         6.5143356682        6.3623745682        3.5367009635
 H         7.3172365482        4.7588367889       -1.5110609917
 H         8.3996111944        4.2173178098       -0.1681664478
 H         8.2092089052        5.9472757543       -0.6988297649
 H         5.3614803614        6.8460482949        1.4400797936
 H         6.5057653820        7.4607709326        0.2562362421
 H         5.0771535628        6.7007285508       -0.2718040346
 H         8.3797653134        4.1315488831        3.9526377792
 H         9.1565606270        5.7072264856        4.3150548203
 H         8.9259419718        7.8538292535        8.5915516560
 H        10.1804915431        6.6187962599        7.9876346308
 H         9.0969298131        7.5207126543        6.8901016602
 H         8.4043724005        2.5708922132        7.3172458611
 H         6.7144935279        3.3949419202        7.0978231247
 H         7.6801749348        3.5706367081        8.6331699194
 H        10.3904807422        3.8469909753        7.2581565549
 H         9.9764841513        3.8730174769        5.5444992017
 H        10.5506398576        5.2964790214        6.4656413210
 Na       -4.4972079744       -1.7210899348       -2.5100615251
