155

 C        -7.0380006930       -5.2266764340       -4.0121222570
 C        -6.1638594340       -3.9561220003       -4.0342198202
 C        -5.8978137336       -3.0632928218       -5.4099259037
 C        -6.5287655585       -1.6536058792       -5.1912517394
 C        -7.8750964356       -1.2598150224       -5.7684239723
 C        -4.3738461593       -2.9671771486       -5.4948577803
 C        -6.5738696525       -3.8892087479       -6.5348677417
 O        -5.5454640642       -3.6501756549       -3.0239554822
 O        -5.8858853577       -0.8674007992       -4.4788605927
 C        -8.9053396963       -0.6570495410       -4.6463235826
 C        -9.1601195431       -1.7746047674       -3.7211848817
 C       -10.3279587961       -1.5933201990       -2.6380487213
 C        -9.6455265510       -1.1420191412       -1.3426823537
 C        -9.1683098316       -2.3139934906       -0.4771007627
 O        -8.5874497494       -2.9453772978       -3.6954324681
 O        -9.4205788517        0.0415200148       -1.0954451879
 C       -11.4065838342       -0.4785139423       -3.0717270245
 C       -11.1099616286       -2.8788952966       -2.4739773698
 C        -8.1810557178       -1.8107896924        0.6038959463
 C        -6.7874151376       -1.4694875379        0.0480195970
 C        -5.7582006487       -0.7589870777        1.0802052841
 C        -4.3488802253       -0.8983199594        0.4248589517
 C        -3.2737969321        0.1737135530        0.7385278242
 C        -6.2029608719        0.7234375572        1.0945291182
 C        -5.6800851801       -1.2934181933        2.5893869138
 O        -6.5234179958       -1.4640149290       -1.1363144929
 O        -4.1432345487       -1.9642917327       -0.1079100672
 C        -2.1629825572        0.2235737275       -0.3069153656
 C        -2.6522175585        0.5054189302       -1.6939760323
 C        -1.7052685186        0.8450113851       -2.8777080045
 C        -1.3594284183       -0.6951423019       -3.4392092677
 C         0.1088292952       -1.0537563240       -3.8893328215
 O        -3.8746283652        0.5074348025       -1.8841142443
 O        -2.1997882828       -1.5516430777       -3.2853379507
 C        -2.4995429087        1.5905846524       -4.0153522313
 C        -0.5027647272        1.7196930828       -2.5807019421
 C         0.5953019221       -2.4124408938       -3.3228194229
 C         0.6266597364       -2.3190294402       -1.8048262635
 C         0.7955378952       -3.6702405695       -1.0022102366
 C         1.3270529792       -3.4542819439        0.4716596794
 C         2.7600424114       -2.9141063724        0.6162393941
 C        -0.6302749410       -4.4273721593       -0.9092447433
 C         1.8083879086       -4.6183532256       -1.6746480390
 O         0.4126140721       -1.2313704059       -1.2847440253
 O         0.7104111570       -3.8899009380        1.4322893428
 C         2.8880306166       -2.0793717779        1.8718851096
 C         4.3411418264       -1.8915539724        2.3182078322
 C         4.8694218298       -0.3910439370        2.5769626308
 C         4.7779704558        0.5172562117        1.2779989777
 C         4.8071655903        2.0583584128        1.4005340391
 O         5.2010101913       -2.7925694700        2.3535364419
 O         4.5073158254       -0.0243815854        0.2611791494
 C         3.8424327102        0.0397367364        3.7171404246
 C         6.3331501471       -0.5323729315        3.0329740909
 C         5.6275062187        2.7381820795        0.2277758186
 C         5.3993291160        4.2280507401        0.2672637767
 C         6.6171616940        5.1625782649        0.6531767208
 C         7.3027997751        4.7038055205        1.9750163356
 C         7.2078207993        5.6240137781        3.1837531285
 C         7.7165906623        5.1109808855       -0.4781019086
 C         6.3093396901        6.6384102993        0.7628439903
 O         4.3829502923        4.8485428969       -0.0841394619
 O         7.9015677055        3.6351516243        2.0665438318
 C         8.2048659362        5.4285299936        4.3801283868
 C         7.3952132291        5.2513029265        5.6974547227
 C         8.1511496787        4.8996511293        6.9763717759
 C         8.2158113435        6.1735743729        7.9791876689
 C         9.4120211375        7.1329707112        7.8689952491
 O         6.1791351047        5.4752026379        5.7571939150
 O         7.2440286365        6.3384572612        8.7663176889
 C         7.4594856885        3.5722295295        7.5652234311
 C         9.6676014416        4.4879480496        6.6342456245
 H        -8.0249435119       -5.0280113000       -4.0338993068
 H        -6.8934954837       -5.7104077219       -4.8925086570
 H        -6.8103775046       -5.8695813929       -3.2662204407
 H        -7.6692671246       -0.4676054530       -6.5494571312
 H        -8.4526392536       -1.9894096152       -6.3021929360
 H        -4.1111672174       -2.5135798283       -4.5439972966
 H        -3.9610581663       -2.3731825901       -6.2881087774
 H        -3.9404143733       -3.9944741181       -5.3602572361
 H        -6.2089687917       -4.8897605712       -6.5857205173
 H        -7.6636203863       -4.1560385189       -6.3893002771
 H        -6.4941728047       -3.3274681408       -7.4775024107
 H        -8.4350149864        0.1324113164       -4.1132259379
 H        -9.9028474533       -0.3638660252       -5.0415111639
 H        -9.9855221672       -2.8685539956       -0.0726482644
 H        -8.7069907000       -2.9282889706       -1.2361816724
 H       -11.0912427836        0.5189363710       -3.1260546354
 H       -12.1139548438       -0.4372456768       -2.2287582162
 H       -11.9719048835       -0.6975563306       -4.0092648975
 H       -11.8642273057       -2.8126864727       -1.6754919628
 H       -11.3584457358       -3.3460043864       -3.3795796448
 H       -10.4840720909       -3.6471050950       -2.1200833515
 H        -7.9717419901       -2.4527347625        1.4349536175
 H        -8.6398982959       -0.9585066435        1.0474197699
 H        -3.7354005176        1.1422010434        0.7785005890
 H        -2.8372032387       -0.0227570671        1.7211083486
 H        -5.8966029215        1.1590220874        0.1739517840
 H        -5.7035415961        1.3759088092        1.7648913072
 H        -7.2860537921        0.9329372519        1.2759076040
 H        -4.9990353865       -2.1124694012        2.7405791803
 H        -5.3722068652       -0.3661989661        3.2355893360
 H        -6.7014138021       -1.6276381481        2.8525231959
 H        -1.5539801597        1.0910703339       -0.0919215304
 H        -1.5290110822       -0.6598705876       -0.2456426890
 H         0.0544633531       -1.2490847316       -4.9808026055
 H         0.7827251948       -0.1848964104       -3.8795102298
 H        -1.9653811160        1.5826313363       -4.9105362264
 H        -2.5458001936        2.6681792007       -3.7935869013
 H        -3.4903865159        1.2142324200       -4.1723609396
 H        -0.0847640776        2.0108387256       -3.5282934679
 H        -0.8371542103        2.6603724825       -2.0784204901
 H         0.2845886909        1.0683704295       -2.0544268464
 H         1.6737824683       -2.5769545838       -3.6354841799
 H        -0.0089366079       -3.2510203558       -3.6560213833
 H         3.3531860330       -3.8985649107        0.7048170467
 H         3.1766973561       -2.2478177756       -0.2063851808
 H        -0.8346253462       -4.9446311011       -1.8865690109
 H        -1.4515526113       -3.7556785584       -0.7190228641
 H        -0.4886904125       -4.9888098203        0.0063157588
 H         2.7428805356       -4.2779820532       -1.9047759963
 H         1.9936681786       -5.4571866706       -0.9809644639
 H         1.3400040307       -5.0093029198       -2.6329199697
 H         2.3371085865       -1.0977942674        1.8208837026
 H         2.3044015864       -2.6110688362        2.6654019799
 H         3.8831221672        2.5783964078        1.3346021200
 H         5.3757553043        2.3099690775        2.3566313903
 H         2.8443931400       -0.0356096228        3.4594039507
 H         4.1089695508        1.0456134843        3.9897943915
 H         4.0203825341       -0.3703474651        4.6361936865
 H         6.7141972811       -1.5254369599        2.9324744338
 H         7.0135517730        0.1806809642        2.5962591856
 H         6.3968525224       -0.4019893792        4.1372424668
 H         5.1756464555        2.3366093296       -0.6499441875
 H         6.7229525552        2.5316250579        0.2310728532
 H         7.3265627650        6.6772127942        2.8957658455
 H         6.1330659843        5.5677807293        3.5869676915
 H         7.2583425759        5.5525673132       -1.4437401378
 H         8.0690678795        4.0941615186       -0.5893361058
 H         8.4789506461        5.9376960890       -0.3953296411
 H         5.3967477426        6.8934528277        1.3217671024
 H         7.1321690665        7.2738620017        1.2142511676
 H         6.2661441662        7.0603847456       -0.2850124772
 H         8.9454028131        4.6240962250        4.3290312395
 H         8.6876576891        6.4147570136        4.4738915150
 H         9.5494045572        7.7602219036        8.7362933611
 H        10.3122680070        6.5795441710        7.6359547502
 H         9.1195031033        7.7709384290        7.0567045055
 H         7.9085218135        2.7136962508        7.0504458176
 H         6.4412396330        3.6834977175        7.4425535770
 H         7.7636461787        3.5390940803        8.5854881825
 H        10.2372014864        4.6599804351        7.4917316062
 H         9.6681073590        3.4650400945        6.2566414343
 H        10.2017264456        4.9404283781        5.8454923698
 Na       -4.5769774169       -1.5730796756       -2.5428897822
