155

 C        -6.5290792407       -5.3739532420       -5.8454818351
 C        -5.8486262073       -4.1512179699       -5.4185132879
 C        -6.0681271656       -2.7624853397       -6.2506407845
 C        -7.0344520948       -1.8117431038       -5.3157856991
 C        -8.4808043859       -1.4655853180       -5.7264423348
 C        -4.7808704545       -1.9541003297       -6.2725902134
 C        -6.6699271506       -3.0279522394       -7.6425851985
 O        -5.1698697127       -4.0759995076       -4.4198222619
 O        -6.7067531443       -1.5821931030       -4.1685702441
 C        -9.4588304616       -1.1596670912       -4.5026217577
 C       -10.1688450653       -2.4762393906       -4.1514149462
 C       -11.0613801944       -2.3242223654       -2.8417656039
 C       -10.1732158621       -1.7893802459       -1.7121399651
 C        -9.6114833513       -2.7680732607       -0.6346297179
 O       -10.0397874668       -3.4879013665       -4.7688778804
 O        -9.7640283226       -0.6426028243       -1.7808190786
 C       -12.1419446489       -1.1626987395       -3.1710835836
 C       -11.9134998587       -3.5527302200       -2.4339545930
 C        -8.5045885478       -2.1649484181        0.2683277729
 C        -7.1711778003       -1.7967644297       -0.4622208093
 C        -6.2320891163       -0.8245956498        0.3975444254
 C        -4.5452725973       -0.9526987072        0.1137038897
 C        -3.5707807122        0.2520460623        0.1684522140
 C        -6.5678500722        0.6335674610       -0.0861080977
 C        -6.5673529092       -0.8441356748        1.8965286429
 O        -6.9052116457       -2.0997306064       -1.5515869567
 O        -4.1177898287       -2.0270809793       -0.1814982425
 C        -2.4642063297        0.1660327570       -0.8755982508
 C        -2.9381519020        0.0729617391       -2.3068264176
 C        -1.8876140032        0.0472607006       -3.4819554586
 C        -1.6614095226       -1.4613187389       -3.8091472528
 C        -0.2635326985       -1.8418770754       -4.5236939541
 O        -4.1409979656       -0.0592112896       -2.5656716990
 O        -2.4533046769       -2.3986924953       -3.6388961298
 C        -2.5050275095        0.5282532713       -4.7981013507
 C        -0.5988446237        0.8465651251       -3.0965161844
 C         0.4440149932       -3.0326572164       -3.8986746665
 C         0.7075210159       -2.8061048800       -2.3916939574
 C         1.2199647238       -3.9592446860       -1.4778563254
 C         2.2291876553       -3.2903769610       -0.2996381509
 C         3.6525950601       -2.9345355872       -0.5715701990
 C         0.0667939187       -4.6328827570       -0.7068952092
 C         2.0767258459       -5.0358497336       -2.2241316769
 O         0.5736716279       -1.7021874411       -1.9335917594
 O         1.7790476543       -3.3840853106        0.7938340967
 C         4.1686836129       -2.1048745243        0.6865715089
 C         5.7618990135       -1.9269096548        0.6748834410
 C         6.5109700766       -0.8836090365        1.5400355492
 C         5.8819334978        0.5166883593        1.1811820136
 C         6.1754287100        1.7668139190        2.1633182905
 O         6.3823051908       -2.8270268977        0.1628686719
 O         5.3028244102        0.7173382080        0.1631069481
 C         6.3961674869       -1.2536801014        2.9773860650
 C         8.0676203464       -0.7670535482        1.1578827512
 C         6.2314075053        3.1652623617        1.4181326796
 C         6.3479988485        4.4537536775        2.3788738914
 C         7.7334288571        4.9111998249        3.0609922346
 C         7.3025770812        4.6700987243        4.6634686885
 C         6.8769241811        5.9196152432        5.4202467666
 C         8.7731725495        3.8396445997        2.9044464624
 C         8.0970607087        6.2762604085        2.7505562093
 O         5.3931691066        5.1478761369        2.5378729431
 O         7.3544168244        3.5617155700        5.1915964988
 C         6.2932885365        5.5329764297        6.7991711514
 C         5.8540530471        6.8415290412        7.6760955315
 C         6.8396494180        7.7718320164        8.5345354196
 C         8.2931709392        7.5488656518        8.2768579147
 C         9.3520892528        8.1841772833        9.2332840162
 O         4.6917916823        7.0827821025        7.7047921669
 O         8.6906579240        6.8498948335        7.3409029722
 C         6.4852483675        9.1551396225        7.9841822996
 C         6.4434465768        7.5619369002        9.9943347451
 H        -7.3602519201       -5.4818230409       -5.1317251168
 H        -6.9230366130       -5.3974955334       -6.8417550870
 H        -5.9034959773       -6.2463858084       -5.5990511327
 H        -8.6302697096       -0.6819869696       -6.5174360166
 H        -8.8853174799       -2.3889239290       -6.0986847407
 H        -4.3698294115       -1.7939746780       -5.2447361327
 H        -5.0479685237       -0.9992114771       -6.7130396296
 H        -3.9252501358       -2.3731428077       -6.8111048585
 H        -6.0284341962       -3.7928205353       -8.2294256971
 H        -7.6811189116       -3.4769606766       -7.6125238416
 H        -6.7218236031       -2.1323673670       -8.2599167368
 H        -8.9614670184       -0.6668854256       -3.6905616304
 H       -10.3207523668       -0.4811272096       -4.7976637156
 H       -10.3833432378       -3.2078694521        0.0191267517
 H        -9.1868642059       -3.6345884477       -1.0863063764
 H       -11.8282352214       -0.1307829097       -3.2682771374
 H       -12.8922824383       -1.1690427745       -2.3313634820
 H       -12.7045477239       -1.4365725341       -4.0615156000
 H       -12.4984622192       -3.2702949393       -1.5925328747
 H       -12.5244307367       -3.9600344092       -3.2005808557
 H       -11.2030494256       -4.2588972841       -1.9589512403
 H        -8.4129098097       -2.8001563468        1.1719111294
 H        -8.8724541746       -1.2534844609        0.6719447806
 H        -4.0099548061        1.2459275934        0.0930951282
 H        -3.1513752469        0.1959206305        1.1932891520
 H        -6.6141712466        0.6302678567       -1.1832260899
 H        -5.8042851994        1.3206324474        0.3724579276
 H        -7.5399142859        0.8863178963        0.3103069103
 H        -6.3108580364       -1.9123447448        2.2296023002
 H        -5.9489045318       -0.2351984188        2.5021808971
 H        -7.6031524175       -0.6117474313        2.1323785458
 H        -1.8656415038        1.0103108905       -0.6327183808
 H        -1.9184772865       -0.7582248814       -0.6893363133
 H        -0.3554801904       -2.1244876007       -5.6197261984
 H         0.4744506383       -1.0517244123       -4.4057609873
 H        -1.8032446853        0.5184370032       -5.5872376325
 H        -2.9392769987        1.5333572788       -4.6418343842
 H        -3.3192634423       -0.0735596597       -4.9605318875
 H         0.0999638050        0.9702249795       -3.9115802952
 H        -0.9219040277        1.8622004742       -2.8348822995
 H        -0.0431625854        0.4871477294       -2.3063259074
 H         1.3811678276       -3.1811800497       -4.4772598956
 H        -0.1614173080       -3.9252746375       -4.0503876937
 H         4.3839121530       -3.8403877318       -0.5559721976
 H         3.7825566322       -2.5110155820       -1.6152497933
 H        -0.6508504699       -5.2256667509       -1.2973691452
 H        -0.6313753638       -3.9341813744       -0.1566213704
 H         0.5718539098       -5.2567559058        0.0149348612
 H         3.0172284399       -4.6281288687       -2.7087765527
 H         2.4473095255       -5.7861668838       -1.5907399813
 H         1.4110335390       -5.5144839999       -3.0030306717
 H         3.7242182448       -1.0929392626        0.7522668326
 H         3.9578072553       -2.6794539979        1.6282338724
 H         5.3354053505        1.7298945495        2.8132801522
 H         7.1453084648        1.5479740894        2.6403623661
 H         6.5021972855       -2.3065805520        3.0882081158
 H         5.4439909964       -0.9577540072        3.3624692378
 H         7.1045508849       -0.8563392968        3.6159961965
 H         8.2354544441       -0.6690515915        0.0820224681
 H         8.5305327532       -0.0286543288        1.8199955794
 H         8.5235881793       -1.6847490372        1.4745904183
 H         5.2729548404        3.2211068043        0.9352154967
 H         7.0567841996        3.1242602904        0.6502344922
 H         7.8207901946        6.4826739165        5.5693378979
 H         6.1892877583        6.5260609469        4.8120909639
 H         9.3216248081        3.9132343491        1.8858845186
 H         8.4932394307        2.7803505383        3.0825941494
 H         9.6234900937        4.0016414819        3.5840941794
 H         7.3028306650        6.9814993783        2.9863013586
 H         9.1142275236        6.5225990575        3.2382508663
 H         8.3225364136        6.3912747942        1.6598874150
 H         5.3570113531        4.9375324841        6.7834442139
 H         6.9813632448        4.8677864870        7.3432188972
 H         9.2752842175        9.3054647102        9.2675230564
 H         9.2729923482        7.8330863952       10.2572285394
 H        10.3428262401        7.7939924279        8.8944305199
 H         5.4134521466        9.2361736920        8.1996199679
 H         6.7161588569        9.2527113942        6.9240300239
 H         6.9290872240        9.9530681620        8.4787225314
 H         5.7699376260        6.7610042991       10.2043065760
 H         7.3578350628        7.2944452101       10.5375223525
 H         6.0882885463        8.5262285264       10.4157251146
 Na       -5.0513453084       -2.1680312266       -2.8603602074
