155

 C        -7.1727079744       -5.6056522956       -5.8933490016
 C        -6.3145240727       -4.3395344434       -5.6272906973
 C        -6.3023164208       -3.0746892140       -6.6813909768
 C        -7.0546302843       -1.9446036862       -5.9705318556
 C        -8.5222416257       -1.3905078254       -6.2818731106
 C        -4.8327807065       -2.6591340526       -6.9495031294
 C        -6.9284569914       -3.3867973488       -8.0531078624
 O        -5.6493894716       -4.2117324682       -4.6237990625
 O        -6.4484530825       -1.3487291466       -5.1280570634
 C        -9.2401551168       -1.0497153460       -4.9666278525
 C        -9.3641914780       -2.4801304109       -4.2910434454
 C       -10.4186638069       -2.8159561819       -3.1189752935
 C        -9.6997961352       -2.3475820714       -1.7076936373
 C        -8.9103782324       -3.4671903098       -0.8698877634
 O        -8.6236789668       -3.3332823064       -4.6617675412
 O        -9.7068897618       -1.1775066464       -1.4503262252
 C       -11.7220120499       -1.8607680109       -3.1550446244
 C       -10.7186465704       -4.2425854187       -3.0393861451
 C        -7.8658728479       -2.8494370619        0.1697774839
 C        -6.7182845884       -2.2018921773       -0.5872755277
 C        -5.9088170909       -1.0194993528        0.1785440111
 C        -4.4173499839       -1.2242898670       -0.0824515935
 C        -3.3729564111       -0.0035186177        0.0320101515
 C        -6.5154722702        0.2524133390       -0.4702146979
 C        -6.0494452625       -0.9060883921        1.6810786314
 O        -6.5631177280       -2.4857476218       -1.7330717191
 O        -4.0121039601       -2.3298936424       -0.2283870206
 C        -2.3276939100        0.1199503239       -1.0663234769
 C        -2.9239678648        0.1711688336       -2.4341617430
 C        -2.0523758518        0.1868105815       -3.7086988300
 C        -1.6394742295       -1.3497895682       -3.9419970940
 C        -0.2567450838       -1.7151901897       -4.2945770026
 O        -4.1397542191        0.1526829118       -2.6309190684
 O        -2.5902789066       -2.1472666100       -3.8764655769
 C        -3.0511152983        0.5534726231       -4.8088480575
 C        -0.8649067740        1.2042553121       -3.6434222257
 C         0.2695107270       -3.0420809192       -3.6727102296
 C         0.5325630355       -2.7794435672       -2.1760481154
 C         1.1570894838       -3.8772301337       -1.2087576368
 C         1.9432027239       -3.0795108414       -0.0711217410
 C         3.3332140518       -2.6836200568       -0.5418624036
 C         0.0213926481       -4.7169531801       -0.5729807698
 C         2.0795658788       -4.7936453200       -1.9888107402
 O         0.2497086078       -1.7015183637       -1.7223654748
 O         1.6092294029       -2.9638232466        1.0504839217
 C         3.8950509827       -1.4928743265        0.1286704054
 C         5.3232370077       -1.1503056724       -0.2679025247
 C         6.3464348169       -0.7168332845        0.9583378533
 C         5.9768298458        0.8635249907        1.2035190938
 C         6.1905557384        1.4921631597        2.6152670424
 O         5.6861318112       -1.0977213095       -1.4432209821
 O         5.4376879604        1.4091156668        0.3076648821
 C         6.0806020496       -1.6273157630        2.1941237231
 C         7.8413433163       -0.8243028842        0.5609197529
 C         6.6181335575        2.9352498027        2.4557476791
 C         6.5517476117        3.8203271533        3.7742017416
 C         7.7846296835        3.9424504202        4.6225772552
 C         7.2946506917        4.6438175600        5.9599063117
 C         6.6642845784        6.1118422859        5.9266206926
 C         8.5624555046        2.6713067650        4.8547248301
 C         8.7318640225        4.9303929151        3.8355704786
 O         5.5256125398        4.4506490250        3.8724508414
 O         7.3954129194        4.0416468057        7.0094294440
 C         5.6304368969        6.3600802240        7.0789235212
 C         5.4480897626        7.8067106473        7.5051705717
 C         6.4282559164        8.5365263879        8.6586644713
 C         7.8512814259        7.9852066916        8.4221922726
 C         8.3880355723        6.7355027220        9.0938097294
 O         4.6645062879        8.4808738165        6.8977924595
 O         8.5242920892        8.4471573447        7.4906577644
 C         6.5736479415        9.9984064357        8.3937326073
 C         5.8862967410        8.2460302146       10.0540599599
 H        -7.1417730450       -5.9810068191       -6.9810683563
 H        -6.8085068510       -6.4326582029       -5.1376173689
 H        -8.2302113784       -5.2108938297       -5.6818126407
 H        -8.4223752646       -0.4914447905       -6.8738051652
 H        -9.0339307538       -2.1873196928       -6.8703392607
 H        -4.2454955402       -2.4257059560       -6.0875174293
 H        -5.0351838064       -1.6200104917       -7.3531551607
 H        -4.3794676099       -3.2409104041       -7.7409713875
 H        -6.8758849088       -4.4056917747       -8.2804227201
 H        -7.9378731101       -3.1884356223       -8.0947282290
 H        -6.4172889162       -2.8128684527       -8.8194885348
 H        -8.5398179570       -0.4144049844       -4.4870138539
 H       -10.2290365370       -0.4852603047       -5.1287647858
 H        -9.7324483056       -3.9901624763       -0.3083005654
 H        -8.4757290030       -4.2585658426       -1.4657504475
 H       -11.6579189417       -0.9607319987       -2.4590817815
 H       -12.6223099526       -2.3049181979       -2.8350476212
 H       -11.9050717761       -1.5081262346       -4.1299387125
 H       -11.4526689476       -4.4209221145       -2.2384419665
 H       -11.0655134273       -4.5697666370       -4.0204845577
 H        -9.8360346159       -4.7276280711       -2.8324101760
 H        -7.6252247335       -3.4846950522        1.0340396347
 H        -8.4943628588       -1.9457328100        0.5006580586
 H        -3.9204269506        0.9690848736       -0.0714845063
 H        -2.9131637766       -0.0063502561        1.0008955481
 H        -6.7105232596       -0.0890244362       -1.5013652683
 H        -6.0248520836        1.2117158305       -0.4664992629
 H        -7.5543350897        0.4375269182       -0.0794712891
 H        -5.6825123571       -1.7368372125        2.2105697497
 H        -5.5077395603        0.0216364645        2.0302457388
 H        -7.1375221729       -0.8207649996        1.9881245700
 H        -1.7335816786        1.0833540238       -0.9485995606
 H        -1.4827487108       -0.6060534971       -1.0770203380
 H        -0.3841685994       -1.7085536778       -5.3924121327
 H         0.4568301850       -0.9417562470       -4.1183159937
 H        -2.5179986105        0.6682847960       -5.7921674988
 H        -3.5510806178        1.4504778484       -4.6067969482
 H        -3.8011669520       -0.1785316787       -4.8814249286
 H        -0.4969761300        1.3262701029       -4.6397880683
 H        -1.3390908241        2.0924411965       -3.3370594853
 H        -0.0641050449        0.9210603809       -2.9608459439
 H         1.1685620237       -3.4503676161       -4.2130547112
 H        -0.5221125815       -3.8015127061       -3.8420817481
 H         3.8769665600       -3.5990264193       -0.2999327066
 H         3.1933378334       -2.5512063627       -1.5799068527
 H        -0.6656079111       -5.0756114827       -1.2983878496
 H        -0.5578032493       -4.0873600544        0.0425368321
 H         0.3775766695       -5.5840447993        0.0622138469
 H         3.0012532183       -4.2835790540       -2.2770939674
 H         2.4270874627       -5.6612857921       -1.2934472072
 H         1.5680040174       -5.2829826612       -2.7909306352
 H         3.2257953251       -0.6496311546       -0.1333293067
 H         3.8860809936       -1.5924160420        1.2237836293
 H         5.2045353985        1.4194289495        3.1111940203
 H         6.9360052328        0.9118925634        3.2302308343
 H         6.6797042204       -2.5290011963        2.1617492962
 H         5.0275914509       -1.8567573430        2.5008186997
 H         6.6420108205       -1.1495247557        2.9828561529
 H         8.0416296750       -0.4092813595       -0.3834521801
 H         8.4474956568       -0.4016010100        1.3122830583
 H         8.1847472074       -1.8545516775        0.4076716145
 H         6.0712877124        3.2738078527        1.5166085232
 H         7.6502069742        2.9031082332        2.1492174372
 H         7.5534661712        6.8366105382        6.0348164285
 H         6.2700240320        6.4111169828        4.9819591609
 H         8.9550479704        2.3284961265        3.9686672802
 H         8.0028124278        1.8679809461        5.4710633628
 H         9.4630375042        2.8839173329        5.4542255331
 H         9.8112020158        4.5761387347        4.0256941091
 H         8.5072429786        4.9666805958        2.8185369743
 H         8.8417047403        6.0170012774        4.1727157072
 H         4.6526172519        6.0214976338        6.8209280075
 H         5.9706227680        5.6763289870        7.9190440327
 H         9.4613124881        6.6774287314        8.9993105055
 H         8.1856262684        6.6776936092       10.2118642100
 H         7.8297220306        5.8670711995        8.6780420519
 H         5.6553293776       10.5631325381        8.4903251780
 H         7.0979183573       10.4682004253        7.4989171160
 H         7.2921514413       10.4034432152        9.1866982897
 H         5.5514844041        7.1770208494       10.2309907674
 H         6.6822932329        8.3872886744       10.7818031289
 H         5.0400473491        8.9024330728       10.2475343719
 Na       -4.9299674629       -2.0843880309       -3.3391684756
