155

 C        -6.2966827541       -5.6559591949       -5.2043903953
 C        -5.6249326487       -4.3177437227       -5.3669250888
 C        -5.9492856927       -3.3413424916       -6.5824067599
 C        -7.1051946248       -2.2582379818       -5.9981634198
 C        -8.5105854489       -2.3942532611       -6.5272055738
 C        -4.7856156798       -2.4590822564       -7.0007002849
 C        -6.4191114078       -4.1783542624       -7.7844705804
 O        -4.7194576763       -4.0424607773       -4.5341722619
 O        -6.8426462925       -1.5064283746       -5.0896090293
 C        -9.5324815847       -2.0553917845       -5.4265935570
 C        -9.6441566292       -3.2466141587       -4.2996652570
 C       -10.3567898796       -3.0136356225       -2.9242719366
 C        -9.1280035235       -2.8238367543       -1.9590099274
 C        -8.4564663560       -4.1932864947       -1.5017556164
 O        -9.1850336355       -4.3039411341       -4.5803204908
 O        -8.7330038060       -1.7349444206       -1.6557840542
 C       -11.2140234139       -1.7497088547       -3.0356408297
 C       -11.2399445255       -4.2482496711       -2.6733119384
 C        -7.2766302063       -3.8369566723       -0.5382859892
 C        -6.3153839606       -2.8217905911       -1.0984582551
 C        -5.7643223577       -1.7861424503       -0.1048295940
 C        -4.5204033685       -1.0736024728       -0.8621941248
 C        -4.2517339451        0.4367618394       -0.8709658044
 C        -6.7697113199       -0.6236712440        0.1559835628
 C        -5.1914505115       -2.3490998527        1.2280205235
 O        -6.1554827928       -2.6731843408       -2.3196957855
 O        -3.7605279941       -1.8370635433       -1.4469149375
 C        -2.9986528311        0.7712814593       -1.8154363107
 C        -3.1136401287        0.5933840889       -3.3963858968
 C        -1.6738146910        0.6162055595       -4.2636719113
 C        -1.2455556900       -0.8265629472       -4.3915461321
 C         0.2209912857       -1.1755468551       -4.6003649284
 O        -4.1044861822        0.4629456506       -4.0699164269
 O        -2.2015526827       -1.6246651760       -4.2799740647
 C        -1.9797373914        1.2364455910       -5.6574116696
 C        -0.7156046879        1.5934635174       -3.5784223734
 C         0.7206626438       -2.3170846243       -3.7760675404
 C         0.7250369052       -1.9078842518       -2.3304001592
 C         1.0471915169       -2.9476862541       -1.2051616250
 C         2.0073325410       -2.3323819454       -0.1044625151
 C         3.2360799923       -1.4665418427       -0.5034286925
 C        -0.3655837882       -3.1329723084       -0.6020257488
 C         1.7527270594       -4.2045362291       -1.6467039327
 O         0.3469636721       -0.7907905662       -2.0350378106
 O         1.9311298293       -2.6849798508        1.0712721298
 C         4.5035661448       -1.8436479470        0.3226385449
 C         5.5833080964       -0.8809525666        0.0093418727
 C         6.4054831808       -0.2417000334        1.1202681225
 C         5.4546393480        0.6574088546        2.0334686623
 C         6.1297941866        1.4439757333        3.0930437418
 O         5.9477877350       -0.5781419585       -1.1315955462
 O         4.2916341145        0.6240012226        1.8122690157
 C         7.1092541460       -1.2689324306        2.1386103460
 C         7.5777091547        0.5810665349        0.5479899054
 C         5.2074115512        2.3889804010        3.8441651824
 C         5.7352134523        2.6692400703        5.2702060871
 C         7.0020830716        3.5463863551        5.5739194690
 C         6.6012906712        4.7625321037        6.5208504651
 C         6.0218150627        6.0389935093        5.8418016125
 C         7.8707421078        2.5593245561        6.3432176778
 C         7.6398902608        3.9792347218        4.2037204884
 O         5.1721595079        2.0902648362        6.1696393287
 O         6.6592915213        4.6688366790        7.7223868035
 C         5.0371782295        6.9009141716        6.7377879335
 C         5.7004298674        8.2508238903        6.9988295029
 C         6.2261002553        8.4868180411        8.4062906369
 C         7.6501756969        7.8312348567        8.4984903878
 C         8.6336517851        8.1856928738        9.4840579099
 O         5.8760911850        9.0799425115        6.1311577468
 O         7.8681308249        6.9949478133        7.6517686685
 C         6.1825273340       10.0656064718        8.6570680062
 C         5.2643161633        7.8834926126        9.5396151667
 H        -6.4504975547       -6.0622258661       -6.2401159888
 H        -5.7199768060       -6.3096866138       -4.5769202891
 H        -7.2661012545       -5.3715656152       -4.6767514536
 H        -8.5699855923       -1.7695426089       -7.4101615104
 H        -8.6475457076       -3.3338215426       -7.0489896889
 H        -4.3431383223       -1.9330334187       -6.1097743400
 H        -5.0420184862       -1.7914018267       -7.7842440245
 H        -4.0386474675       -3.2341106086       -7.2178295891
 H        -5.6135072407       -4.7298356160       -8.0870681753
 H        -7.2378103819       -4.7764221843       -7.6282282933
 H        -6.7973729508       -3.5878256403       -8.5997813909
 H        -9.4940574325       -1.0380801840       -4.9554224000
 H       -10.3965723080       -2.0538455847       -6.0054719410
 H        -9.1646868892       -4.8309971391       -0.9810174345
 H        -8.1726061019       -4.7146544900       -2.4829663072
 H       -10.5404121183       -0.8689920525       -3.0407287806
 H       -11.9955547474       -1.6955927900       -2.2953285805
 H       -11.6702857053       -1.7662731403       -4.0580044396
 H       -11.4900588327       -4.4749828340       -1.7024404188
 H       -12.2489710105       -4.0682556580       -3.0755776420
 H       -10.9355477850       -5.0734670283       -3.2886874257
 H        -6.7540599447       -4.7715682951       -0.2702658970
 H        -7.7622283441       -3.4762414292        0.4194683968
 H        -5.1046496013        1.0929369176       -1.1059141713
 H        -4.1310677987        0.7367739915        0.1938391417
 H        -7.0613634415       -0.1183255892       -0.7538082163
 H        -6.3252355168        0.0257870806        0.9216981770
 H        -7.7197999624       -0.9152805403        0.5689611935
 H        -4.6830513882       -3.3040286659        1.0601753863
 H        -4.6638961259       -1.5455151934        1.6671690943
 H        -5.9528452447       -2.4507538467        1.9898991891
 H        -2.7491791383        1.8509354691       -1.7383257101
 H        -2.1406862203        0.1028519005       -1.6561852177
 H         0.3559799961       -1.5868332882       -5.5719581678
 H         0.8600515495       -0.2547514134       -4.5663970272
 H        -1.1397511469        1.2089327357       -6.3156485512
 H        -2.0078217309        2.2648976393       -5.5778586119
 H        -2.8899542323        0.8602083435       -6.1401927583
 H         0.0953286144        1.7987314490       -4.2364391239
 H        -1.1468369644        2.5465848244       -3.3477177763
 H        -0.1848139580        1.2004664750       -2.6552544379
 H         1.7334881788       -2.5570828640       -4.1084665701
 H         0.2586239022       -3.2889058926       -3.9543471850
 H         3.4401279371       -1.6741230006       -1.5452483939
 H         3.0510315491       -0.4534855187       -0.1926790679
 H        -1.0244354390       -3.5724399763       -1.3294317002
 H        -0.7861163758       -2.1537876852       -0.3439539293
 H        -0.3078347054       -3.6773608863        0.3131900686
 H         2.5818608846       -3.9546119741       -2.3512304265
 H         2.1512335786       -4.7946061087       -0.8025742039
 H         1.0570358095       -4.8534142216       -2.2084908076
 H         4.4040723792       -1.7335670696        1.4287791329
 H         4.8586272848       -2.8412705556        0.0965520387
 H         6.6489979170        0.7406006120        3.7597484687
 H         7.0249883433        2.0036024163        2.7423514195
 H         7.5608415197       -1.9572287321        1.5296137234
 H         6.4860434600       -1.8311443578        2.8615645390
 H         7.8545767528       -0.7668582852        2.7080256178
 H         7.1418517171        1.4763607569        0.0694130098
 H         8.2591138626        0.9445282424        1.3345507774
 H         8.0416591674        0.1588612759       -0.3057753419
 H         4.2388912315        1.9164372763        3.8889009178
 H         4.8306365306        3.2383676687        3.2552580729
 H         6.8010873113        6.7318771361        5.5065220548
 H         5.6351202390        5.6114501592        4.8721956627
 H         8.1277457655        1.7797839284        5.7328345587
 H         7.1447653515        2.2920868148        7.1562091100
 H         8.8215672133        2.9909897349        6.6496180707
 H         8.3305127598        4.8360238661        4.4234866313
 H         8.2393528908        3.1984370543        3.6969038201
 H         6.8754715889        4.4053457752        3.4629240588
 H         4.0579460028        7.0568679999        6.2201114641
 H         4.7866443040        6.3353501009        7.6045405394
 H         8.2477940040        8.9569479754       10.1190934999
 H         8.9366143748        7.3247465498       10.0546350890
 H         9.5350819238        8.5884634169        8.9485215166
 H         5.1948509000       10.5038520688        8.4599214564
 H         6.9451779448       10.6484332517        7.9746891436
 H         6.5432441504       10.3520686163        9.7572530007
 H         5.4214700701        6.8492363120        9.5459934685
 H         5.4138081342        8.3986956442       10.5151132394
 H         4.2031694880        7.9931659543        9.3057217372
 Na       -4.7955403593       -1.8174362440       -4.0401292803
