155

 C        -5.7292274932       -6.1989599249       -5.8640599993
 C        -5.2917539584       -4.7932472557       -5.6466737537
 C        -5.6533795329       -3.7624971355       -6.7871125700
 C        -6.6551755370       -2.5278664685       -6.2213810016
 C        -8.1301578519       -2.4723235188       -6.5403232759
 C        -4.2412727129       -3.1101121818       -7.1445503376
 C        -6.3047370191       -4.2713531763       -8.0715502383
 O        -4.5526785085       -4.4393781650       -4.7425651616
 O        -6.1249251862       -1.6530917940       -5.5679402165
 C        -8.8863679413       -2.0403103963       -5.2318293969
 C        -9.1075574118       -3.2799250777       -4.2460535657
 C       -10.0568052799       -3.1127166771       -3.1056076831
 C        -9.2015048377       -2.9754652282       -1.7619796366
 C        -8.1746513246       -4.1079267331       -1.4161757223
 O        -8.4469348863       -4.2782578472       -4.4224694743
 O        -9.3509889133       -2.0173982820       -0.9938500373
 C       -11.0379850274       -1.8547132399       -3.2159536845
 C       -11.0143685533       -4.4055086987       -2.9072575531
 C        -7.0227594949       -3.6538779457       -0.4264320546
 C        -6.2340413919       -2.5960329683       -1.1450561633
 C        -5.2223079501       -1.6405373656       -0.2587094360
 C        -4.2859822292       -0.8438006252       -1.2113811900
 C        -4.5097495674        0.7246897767       -1.3086619399
 C        -6.0661389144       -0.6915513210        0.6298750124
 C        -4.3750670143       -2.5669512128        0.6398770304
 O        -6.1959104743       -2.3492539450       -2.3251284799
 O        -3.5202346862       -1.4226889694       -1.9176424887
 C        -3.4098908863        1.2697188817       -2.1181744896
 C        -3.5046364954        0.9174343089       -3.5381455182
 C        -2.1343962047        1.0486623226       -4.4213527754
 C        -1.4835754712       -0.3772414032       -4.2431037906
 C         0.0784704781       -0.4738315215       -4.4509818185
 O        -4.5426335611        0.4242794807       -3.9985560412
 O        -2.1151627346       -1.3974579144       -4.3803296779
 C        -2.7530981905        1.1121409516       -5.8067396482
 C        -1.1927337374        2.2680476100       -4.3149757463
 C         0.6655736591       -1.7706343359       -3.7558917077
 C         0.4734114427       -1.6964262355       -2.1419344298
 C         0.9544288831       -2.8797617774       -1.2822097635
 C         1.9854703099       -2.4819573639       -0.1175153558
 C         3.3709684488       -2.0264620178       -0.5043509740
 C        -0.3251251717       -3.2976883105       -0.4184084540
 C         1.3902392740       -4.1519613250       -2.0349748917
 O        -0.1694338845       -0.7576527936       -1.7180030085
 O         1.6380467290       -2.3722046362        1.0160519148
 C         4.4518254617       -1.8833723426        0.5556360708
 C         5.5130997552       -0.8183714064        0.0892978158
 C         6.4040683935       -0.1468799044        1.2003232260
 C         5.3579041495        0.6795972781        2.1024372066
 C         5.9572037799        1.8604669426        2.9524381632
 O         5.6336223652       -0.5260019709       -1.0619199982
 O         4.1406974815        0.4224330837        2.2190326199
 C         7.0768379339       -1.1263790568        2.1784936449
 C         7.3433582642        0.7833105718        0.5135281786
 C         4.9750182366        2.2081727822        4.1798961810
 C         5.8345886809        2.2233297983        5.4653152128
 C         6.4503710586        3.5965873721        5.9544276635
 C         5.6454919066        4.3411486462        7.1069274059
 C         4.6012045430        5.5033119740        6.6476888412
 C         7.7645580837        3.1305974186        6.5483110104
 C         6.7146828456        4.5119234934        4.7852695826
 O         6.0262383802        1.2236040328        6.0564189904
 O         5.7726990838        4.0443550226        8.2815141748
 C         4.7207099008        6.7815472365        7.4503898495
 C         5.8634863183        7.8396293325        7.0123705897
 C         6.3587593801        8.7410170467        8.1374510599
 C         7.5834408104        7.9921403004        8.7124767199
 C         8.2463193362        8.5279872051       10.0420362826
 O         6.3760707121        7.8128023330        5.9333667455
 O         8.0812618731        7.0645682821        8.0949925701
 C         6.8087751404       10.1255447158        7.4944092385
 C         5.2779523646        9.2057857519        9.2221569988
 H        -5.7888414062       -6.3464702479       -6.9892396274
 H        -4.9369057456       -6.9678995656       -5.4641396659
 H        -6.7491469148       -6.3006573795       -5.4115996964
 H        -8.1350000976       -1.6772939682       -7.2732850633
 H        -8.5460099528       -3.3899426328       -6.9198307821
 H        -3.9152920516       -2.3355479949       -6.4417874814
 H        -4.2179931062       -2.7827457912       -8.2222899735
 H        -3.4897125971       -3.8831003197       -7.1859806455
 H        -5.5539978574       -5.0303025537       -8.5591444043
 H        -7.2407565302       -4.9224903516       -7.8850745382
 H        -6.3591644085       -3.4801658054       -8.8428101280
 H        -8.3711840310       -1.3196205205       -4.4782851362
 H        -9.7975534557       -1.7473604234       -5.6235330338
 H        -8.6793729099       -4.9139974488       -1.0397886355
 H        -7.7822080481       -4.4954848413       -2.3787223083
 H       -10.5148849474       -0.9291114517       -2.8597936997
 H       -11.9036357996       -1.9478790575       -2.6394795531
 H       -11.2838314763       -1.7125578722       -4.2375493920
 H       -11.3350063114       -4.5813863309       -1.8653216912
 H       -11.9039237673       -4.4528876133       -3.6432325374
 H       -10.5060173845       -5.3300908857       -2.9885228269
 H        -6.3888063046       -4.4380419205       -0.0518050597
 H        -7.5220960498       -3.1648768948        0.3799836363
 H        -5.4228650913        1.0713998746       -1.7499087838
 H        -4.4706287120        1.2201134031       -0.3201688786
 H        -6.7666123013       -0.1112935404       -0.0051555188
 H        -5.5397038921        0.0477824897        1.2803759710
 H        -6.5465576322       -1.3896975559        1.2385427095
 H        -3.7037299898       -3.2361672593        0.2095009414
 H        -3.7378567109       -1.9346762598        1.2264768614
 H        -5.2159810127       -3.1156820435        1.1631298051
 H        -3.4309322636        2.3880289547       -2.1322128664
 H        -2.3665317462        1.0252904877       -1.8193320621
 H         0.0663811066       -0.5868205918       -5.5239084072
 H         0.5076047436        0.4578716689       -4.0402792042
 H        -2.0195633066        0.7425404757       -6.6405767531
 H        -3.2569316282        2.0431198222       -5.9454624738
 H        -3.5245527640        0.3738465129       -5.9172361216
 H        -0.4967094699        2.2539478568       -5.1735255625
 H        -1.6947778977        3.1991728302       -4.4172359678
 H        -0.5910826619        2.3407857885       -3.4046245397
 H         1.7352743536       -1.9242320487       -4.0648852974
 H         0.2222834044       -2.7427892994       -4.1429687526
 H         3.5832793000       -2.6919145072       -1.3738921999
 H         3.1986823699       -1.1145072556       -1.0969228000
 H        -1.1238201927       -3.6603646009       -1.0532500437
 H        -0.6667200087       -2.4380371347        0.2053447671
 H        -0.0983539895       -4.1471332391        0.2977062342
 H         2.3557266131       -4.0928951499       -2.5201145609
 H         1.5175520926       -5.0361160937       -1.3499383274
 H         0.7192414882       -4.4862243731       -2.7218170688
 H         3.9599688711       -1.6637456989        1.5512870096
 H         5.0273071656       -2.8392671204        0.7530748036
 H         6.9039184111        1.5840960541        3.3902989749
 H         6.0768552088        2.8302457926        2.4122902378
 H         7.9072312253       -1.6166343547        1.5605998578
 H         6.3735861534       -1.8479888415        2.5355164036
 H         7.6980756827       -0.6274057758        2.9602436880
 H         6.6374104205        1.2283569173       -0.1796469899
 H         7.8259248100        1.5379238373        1.1435144860
 H         8.1669068957        0.2024239880        0.0138959472
 H         4.2533422960        1.4406114630        4.2079150650
 H         4.6995844887        3.2416116362        3.9413306521
 H         4.6423750972        5.6733116681        5.6084062789
 H         3.6150358145        4.9843569140        6.7769809862
 H         8.2879199960        2.5822954969        5.7604962918
 H         7.3996695588        2.4362337950        7.3003216618
 H         8.2299112454        3.9975399444        7.1069731787
 H         7.1890422636        5.4626513566        5.0548821725
 H         7.3131984720        4.0622643179        4.1099482711
 H         5.8235732344        4.7902896695        4.2700377291
 H         3.7490580307        7.3564600535        7.4619081409
 H         5.0086830763        6.4830530689        8.5191043728
 H         7.6829160436        8.0607603468       10.8054837606
 H         9.3222459947        8.3004927846       10.1457312897
 H         8.2860080349        9.6473542315       10.0740978967
 H         5.8869590751       10.5232057015        6.9909151755
 H         7.4454480852        9.9022764030        6.6884675225
 H         7.1753092888       10.7385094976        8.2460566561
 H         4.8755753332        8.4352672154        9.8300986122
 H         5.7504197056        9.8293375362        9.9771010713
 H         4.4397259062        9.6944590009        8.7056002593
 Na       -4.4044393199       -1.9979891191       -4.0397618926
