155

 C        -4.7243684665       -6.2770302501       -6.0196589511
 C        -4.7319136886       -4.7496790960       -5.8637192910
 C        -5.3602920005       -3.8707328105       -6.9950637098
 C        -6.3356849427       -2.7657954250       -6.3367544549
 C        -7.8331731422       -2.7181507350       -6.5758897372
 C        -4.1677606398       -3.2200448893       -7.7572927126
 C        -6.2025647759       -4.7030842720       -8.0417189559
 O        -4.2812575260       -4.3361274753       -4.8218688217
 O        -5.7187325968       -1.7760132655       -5.9152407709
 C        -8.5982332046       -2.1647911974       -5.4401239624
 C        -8.7175599947       -3.3570294093       -4.3854609603
 C        -9.7820201904       -3.3408158195       -3.2693671675
 C        -8.9817274009       -2.6971957361       -2.0070057991
 C        -8.0767827590       -3.7439036403       -1.1242402090
 O        -7.8865952558       -4.2775499042       -4.4782050253
 O        -9.0065890078       -1.5351520041       -1.7599171079
 C       -10.9947851928       -2.3892512329       -3.4426277871
 C       -10.2352371325       -4.8463204852       -3.0222608782
 C        -7.1010814044       -2.7700687176       -0.3475641490
 C        -5.8275055118       -2.4363583105       -1.0323435370
 C        -4.7140140147       -1.7636246303       -0.1569745642
 C        -3.8658304063       -0.9343623524       -1.0545406423
 C        -4.0690159544        0.6255733687       -1.0565857850
 C        -5.3995371487       -0.8670320600        0.9168865338
 C        -3.9265062418       -2.9364226699        0.6045810009
 O        -5.6283372724       -2.7983924010       -2.1956259849
 O        -2.9828739716       -1.4136760087       -1.7309058543
 C        -3.2080165143        1.3540199463       -2.0584804413
 C        -3.5090935146        0.8828714366       -3.5131012485
 C        -2.5710494363        1.0749499113       -4.7651070205
 C        -1.5624472537       -0.1416476247       -4.5602746475
 C        -0.1402268200        0.1466222977       -4.0154474118
 O        -4.6095500627        0.2918340848       -3.6168264081
 O        -2.0065161876       -1.2336954151       -4.6497126721
 C        -3.3878477120        0.7175404750       -5.9923169964
 C        -1.9131005714        2.4280869193       -4.7652393632
 C         0.4872074493       -1.1380330410       -3.5717126913
 C         0.1035232047       -1.5937629571       -2.1504328090
 C         0.4581716190       -2.9483776940       -1.4928072768
 C         1.5655152671       -2.6006041676       -0.3057084322
 C         2.7989037698       -1.7623618742       -0.7807118791
 C        -0.7821354970       -3.5727226118       -0.7551420307
 C         1.0495449650       -4.0432581008       -2.4102744918
 O        -0.2683603094       -0.7198276836       -1.3509748035
 O         1.3295823928       -2.8057396266        0.8779593845
 C         3.7293481308       -1.5269840314        0.4303665121
 C         4.8195927038       -0.3964572845        0.1740322295
 C         5.8881066504       -0.0475117571        1.2600868464
 C         5.1900688115        0.8657064231        2.4063506725
 C         6.0883974240        1.5536264368        3.3580818797
 O         4.9465250715        0.1566735955       -0.9063877723
 O         3.9819974329        1.0182926335        2.3949360370
 C         6.3772100828       -1.3625763837        1.9658944041
 C         7.0537086752        0.6866446473        0.5988678677
 C         5.3390748118        2.2829265681        4.5049235019
 C         6.2458639402        2.4775519548        5.7421713368
 C         6.3846106790        3.8501478824        6.4693416914
 C         5.1707638614        3.8300785466        7.3764080034
 C         4.4218641465        5.1561055455        7.4591833561
 C         7.7187050643        3.7569797872        7.3539109857
 C         6.4023902443        4.9658862416        5.4541707651
 O         6.8518538032        1.4794899913        6.1917850910
 O         4.8268244907        2.8355280053        7.9587520943
 C         5.2287149515        6.3836845550        8.0568448437
 C         5.4152449647        7.6025430109        7.2109458414
 C         6.5052786825        8.6787701818        7.7096305153
 C         7.3751550014        8.0613029743        8.8709302107
 C         7.5051274390        8.9285266086       10.1335919794
 O         4.8337094058        7.8354440156        6.1715016846
 O         8.0143142233        7.0478978135        8.7523576837
 C         7.5294493533        8.9732273373        6.5799346485
 C         5.7309558491        9.9734128106        8.0474174478
 H        -4.0305324352       -6.5992869321       -6.7325101291
 H        -4.5081589658       -6.7387459877       -5.1307163103
 H        -5.6997573083       -6.6440361244       -6.3466522138
 H        -7.9117812671       -2.0363086583       -7.4677251100
 H        -8.3688479175       -3.6784331155       -6.7359217860
 H        -3.7917170237       -2.2977027769       -7.4084405580
 H        -4.5635416969       -2.9242285070       -8.7736630475
 H        -3.3584581967       -3.9162144396       -7.9014663471
 H        -5.5638511489       -5.3317747540       -8.5527855865
 H        -6.9353355202       -5.3154815770       -7.5672324830
 H        -6.7093335418       -4.1168591502       -8.8205419338
 H        -8.0863225682       -1.3267035175       -4.8513889471
 H        -9.5875403355       -1.8937533800       -5.8725067799
 H        -8.5807656527       -4.4683754293       -0.4954355665
 H        -7.5119099677       -4.3794962448       -1.8858299250
 H       -10.6296471723       -1.4433977313       -3.7391210753
 H       -11.5790593565       -2.3249064339       -2.4557684630
 H       -11.7048351440       -2.7917868792       -4.1756148774
 H       -10.8304631727       -5.0868475779       -2.1413723243
 H       -10.7952382702       -5.3413639269       -3.7451341886
 H        -9.2997805727       -5.4244304359       -2.9539723544
 H        -6.7135080837       -3.2675703215        0.5721651620
 H        -7.7013087972       -1.8996833578       -0.0532176594
 H        -5.0624368698        0.9917018882       -1.1724729525
 H        -3.4926582955        0.8508255818       -0.1292031277
 H        -6.1098688175       -0.2191907874        0.4266742648
 H        -4.6408043102       -0.3225098798        1.4885694266
 H        -6.0220301187       -1.4998885179        1.5169864283
 H        -3.4035871055       -3.5557580158       -0.1028180718
 H        -3.4112417994       -2.6070790820        1.4977201621
 H        -4.6282156894       -3.5610892638        1.1486083816
 H        -3.2033920223        2.4185411961       -1.9040159992
 H        -2.1601243367        1.0888665505       -1.9226514368
 H         0.3437804150        0.7416187949       -4.8258297307
 H        -0.3883058615        0.7763485327       -3.1596090719
 H        -2.7913429358        0.6020160681       -6.8677322000
 H        -4.1891598550        1.4148673642       -6.3455704632
 H        -3.7997692027       -0.2342632657       -5.7073433103
 H        -1.3443508085        2.5514276637       -5.7282543031
 H        -2.6244576182        3.2284095610       -4.5648365336
 H        -1.2271548102        2.4772182776       -3.9805028543
 H         1.5511611085       -0.9709685419       -3.5856006127
 H         0.1503610609       -1.9041093922       -4.2775983779
 H         3.3196821917       -2.3384419659       -1.5415419514
 H         2.6218292321       -0.7767499549       -1.2018416589
 H        -1.5494530123       -3.9018572996       -1.5072722140
 H        -1.3038365788       -2.8489075784       -0.1684796824
 H        -0.4456041467       -4.4271874687       -0.1575997851
 H         1.8980012051       -3.6943354428       -3.0467031890
 H         1.4690031671       -4.8974293434       -1.8430447191
 H         0.3834322120       -4.3813267785       -3.2148628007
 H         3.2482840872       -1.0788165078        1.2357342735
 H         4.2500738130       -2.3953763280        0.7643516987
 H         6.7908232212        0.8709537271        3.8294854317
 H         6.5672288339        2.2890153190        2.6708672529
 H         6.8754714123       -2.0094897004        1.2210696891
 H         5.5705353516       -1.9419815232        2.4087400458
 H         7.0992700457       -1.1973594440        2.7601660615
 H         6.7415622344        1.4587408256       -0.0830820405
 H         7.7397327520        0.9188625174        1.3793180336
 H         7.4412926457       -0.0520700733       -0.1114582859
 H         4.4923491762        1.7566504716        4.9239627697
 H         4.9220864535        3.2152990172        4.0107608154
 H         4.1140458295        5.4154184606        6.4924712794
 H         3.5282658603        5.0808449910        8.1035170879
 H         8.6058079821        3.6090247873        6.6926065696
 H         7.5316035265        2.9211271309        7.9773460690
 H         7.9051814278        4.6680961479        7.7887515014
 H         6.4609978477        5.9965260340        5.8008381966
 H         7.3218461983        4.8406059423        4.7315435768
 H         5.5582449331        4.8940099082        4.7529374347
 H         4.7995014898        6.7307494151        8.9649362367
 H         6.3214901625        6.1025104477        8.1678638578
 H         6.5578213569        9.3201809278       10.4911258330
 H         7.9443552765        8.2667297807       10.8746556622
 H         7.9520277866        9.8529072205        9.8633690466
 H         6.9988567890        9.2695746615        5.6435692605
 H         8.0650396039        8.0100149566        6.5861655901
 H         8.3325180717        9.6774023426        6.9155467499
 H         4.8143421949        9.7661806532        8.6083904072
 H         6.3547890519       10.6980132734        8.5152813244
 H         5.4234084238       10.5135764187        7.1499273799
 Na       -4.3081192460       -2.0369836551       -4.0726400043
