155

 C        -4.8870914740       -6.3335863395       -5.5550447196
 C        -4.6065177611       -4.8447735730       -5.6526656675
 C        -5.0342442411       -3.8946172016       -6.8995184551
 C        -6.2122174481       -2.9978359899       -6.3312995735
 C        -7.6114452443       -2.9817164216       -6.9211872232
 C        -3.8372497848       -2.9221829503       -7.2741395480
 C        -5.2801225005       -4.7290500409       -8.2222367390
 O        -3.9041455393       -4.1739263372       -4.9334097234
 O        -5.9835951116       -2.1920736203       -5.4119753188
 C        -8.7655509544       -2.7456765375       -5.9799266492
 C        -8.6337915563       -3.8558635988       -4.8852612764
 C        -9.4304356075       -3.7259381609       -3.5561519793
 C        -8.5701460281       -2.7773434580       -2.5243344112
 C        -8.3079700623       -3.2333194655       -1.0592739891
 O        -7.7915711090       -4.7213510913       -5.0661380092
 O        -8.1960887633       -1.7416402180       -2.9989524206
 C       -10.7338960234       -2.8335262080       -3.6362625954
 C        -9.7206695279       -5.1790226901       -2.9853128776
 C        -7.4157365803       -2.2553748067       -0.2528751688
 C        -5.9491465038       -2.1631938662       -1.0587541905
 C        -4.7990489669       -1.6713031846       -0.1386611519
 C        -3.7355263517       -0.8480533835       -0.8085085287
 C        -3.6008979677        0.7580940264       -0.6330507241
 C        -5.2348639777       -0.9673578534        1.1625549580
 C        -4.1455795590       -2.9987114779        0.1817394690
 O        -5.7142918797       -2.6181409054       -2.1385631778
 O        -2.8451518510       -1.3662769543       -1.4689077397
 C        -2.8211048510        1.1503225789       -1.9160192128
 C        -3.5510387749        0.8112120600       -3.1550855658
 C        -2.7581042485        1.0322724694       -4.5132982573
 C        -1.7120352274       -0.1172454378       -4.5870543593
 C        -0.2341626714        0.2497450889       -4.5208662456
 O        -4.6083971318        0.1817723529       -3.0852644093
 O        -2.1086490432       -1.2419252823       -4.7026680730
 C        -3.7621646712        0.7056580926       -5.7168538793
 C        -2.0981293007        2.4482996527       -4.5836036251
 C         0.6958270578       -0.9036401135       -4.0942712629
 C         0.3621776767       -1.2818459417       -2.6017339533
 C         0.7677589594       -2.6361772688       -1.9844907763
 C         1.3082496607       -2.3888365375       -0.5206920006
 C         1.7525836791       -0.9117445528        0.1216202122
 C        -0.4998815261       -3.5695469533       -1.7701453933
 C         1.8535289740       -3.5024195249       -2.7511365839
 O        -0.2245432891       -0.4677825177       -1.9083901456
 O         1.2483370323       -3.3170599300        0.2119311333
 C         3.0364666352       -0.9634487393        0.9023610575
 C         4.1554216942       -0.1137417207        0.4601386027
 C         5.4425459297        0.0199054921        1.4100757134
 C         5.0368025228        0.7703014326        2.7489022479
 C         6.1678394612        0.9725640408        3.8850456261
 O         4.2682830132        0.3353662682       -0.6734120542
 O         4.0150953415        1.3742466263        2.8210383904
 C         5.8694542365       -1.4548375332        1.7690026348
 C         6.6390633117        0.8822330147        0.6426703552
 C         5.6590308756        1.7458723834        5.0764697270
 C         6.7923526869        2.1765587832        5.9351433957
 C         6.4406492814        3.5005392953        6.7493293515
 C         4.8822111613        3.7704926930        7.0129774816
 C         4.3847914040        5.1896188433        7.2829138526
 C         7.0853989945        3.3836210326        8.1602179349
 C         7.0571829047        4.6578526962        5.7552476823
 O         7.9438924682        1.8102667913        5.8838298825
 O         4.1504960249        2.7985634845        7.0093384939
 C         5.2808855651        6.1272137401        8.0720562902
 C         5.1886513958        7.5833035016        7.6354999130
 C         6.4889048066        8.4966561140        7.4928265386
 C         7.0798605094        8.6523858952        9.0048591431
 C         6.3056093766        9.3475748662       10.0446712357
 O         4.0812793354        8.0523926421        7.4358627665
 O         8.2317123038        8.2127988992        9.1952035670
 C         7.5552572941        7.8772313624        6.5508880199
 C         5.9518433668        9.8687321801        7.1406258731
 H        -4.1365116773       -6.8745210675       -6.1547924125
 H        -4.7794472116       -6.5493170602       -4.4844486544
 H        -5.8287349791       -6.5622523758       -5.8737882200
 H        -7.6921145376       -2.2755524834       -7.7250720339
 H        -7.8784415955       -3.8151608728       -7.5509611140
 H        -3.3958838950       -2.5495714683       -6.3399575803
 H        -4.1185799175       -2.1457904626       -7.9618775110
 H        -2.9588151516       -3.3904871734       -7.7640211548
 H        -4.3563169806       -5.3606660659       -8.3700185121
 H        -6.0543999787       -5.4887301102       -8.0304825964
 H        -5.4664567920       -4.1757541644       -9.1697888700
 H        -8.6865101488       -1.8856227604       -5.4218616627
 H        -9.7691747885       -2.5807749121       -6.4914506110
 H        -9.3576908622       -3.2088988464       -0.6641936483
 H        -7.9278261548       -4.2681897464       -1.1316952672
 H       -10.3996388706       -1.8825897791       -3.9857800934
 H       -11.1521275675       -2.5593309852       -2.6571017425
 H       -11.5002656119       -3.2029400334       -4.3158704067
 H       -10.4528401865       -5.3089802852       -2.1906884204
 H        -9.8975829574       -5.8635196122       -3.7787879838
 H        -8.7842630647       -5.5971019808       -2.5160035481
 H        -7.3303605335       -2.6026707675        0.8007004587
 H        -7.9568306701       -1.2974297463       -0.1226635301
 H        -4.5620532492        1.3442519938       -0.5842139605
 H        -2.9991118660        1.0408062931        0.3045832085
 H        -5.7258931112       -0.0510375239        0.9103112439
 H        -4.3522731013       -0.6885629561        1.7208819769
 H        -5.7729264909       -1.6594624807        1.8689489514
 H        -3.5664213444       -3.3704505840       -0.6932824334
 H        -3.3140632724       -2.8509583965        0.8463059797
 H        -4.8304099095       -3.7197645207        0.3736438219
 H        -2.5766196161        2.2265638147       -1.9368742598
 H        -1.8553182592        0.6023274822       -1.9886764357
 H         0.0023293019        0.8789121441       -5.4103232434
 H        -0.1942552030        1.0907825318       -3.8774479779
 H        -3.2844008815        0.0950929883       -6.4463916999
 H        -4.1964402399        1.6413440143       -6.1476930153
 H        -4.6752977163        0.2030395011       -5.3222999022
 H        -1.6000901523        2.5785410511       -5.5357176450
 H        -2.9532474200        3.1448730062       -4.6196247906
 H        -1.4459109522        2.6624244179       -3.7433079733
 H         1.7149125591       -0.5486155767       -4.1295515920
 H         0.5624099310       -1.7884510803       -4.7506814282
 H         1.9200813910       -0.2403498058       -0.7706688193
 H         0.7646042010       -0.7322329154        0.6072927464
 H        -0.5787045050       -4.0217115061       -2.7145546517
 H        -1.4074313891       -3.0607924217       -1.3976412008
 H        -0.2233216776       -4.2763357371       -1.0324508004
 H         2.7657134087       -2.9949423956       -2.6755242604
 H         1.9565755255       -4.4055584623       -2.2835268033
 H         1.5495499745       -3.8124792228       -3.7885123451
 H         2.7336320653       -0.7048105756        1.8924547651
 H         3.3025106670       -2.0665023365        0.9864213938
 H         6.7017235841        0.0208877798        4.0799280476
 H         7.0449865287        1.5167424272        3.5145160542
 H         6.0429763924       -2.0656525674        0.9057402165
 H         5.1795541470       -2.0617415058        2.4440910162
 H         6.8326867496       -1.4495467457        2.2809810533
 H         6.2186140871        1.9143110540        0.5481562814
 H         7.5854106893        1.0104954270        1.2334591741
 H         6.7964323102        0.3001137334       -0.2450907943
 H         4.8894874856        1.1561305828        5.6079329472
 H         5.0043413819        2.6099754492        4.8167024888
 H         4.1268085740        5.6076017920        6.2586513234
 H         3.3483606494        5.1036198352        7.7657831104
 H         8.0839452296        3.1415397262        8.0675998456
 H         6.5239704775        2.5749683991        8.7461705467
 H         6.8207859743        4.2628154196        8.7488157782
 H         6.9969505947        4.4255241617        4.7095574031
 H         6.4810115025        5.5247932431        5.9680696208
 H         8.1269492376        4.8492451976        6.0441574803
 H         5.1499276167        6.0041069513        9.0902598408
 H         6.3765642603        5.8104069200        8.0315723913
 H         5.1975110550        9.4485080064        9.8192211960
 H         6.5114083993        8.9125547318       11.0074557595
 H         6.7934004161       10.3287379178       10.0857968099
 H         7.0034394659        7.7219018480        5.6375617273
 H         7.7462483302        6.8624135060        7.0188521423
 H         8.4164546213        8.5893175194        6.5769463687
 H         5.2193391276       10.3208938014        7.8824815395
 H         6.7097275265       10.6053883409        7.0876860101
 H         5.4221884358        9.7968401322        6.2038258224
 Na       -4.0740275399       -2.0731373349       -3.9220717619
