155

 C        -0.7154978149      -11.8558342481        2.7399301545
 C        -0.4891474979      -10.3537543054        2.2164272908
 C        -0.3896896833       -9.0219002374        3.1710301343
 C        -0.8192153979       -7.7198061652        2.1983893793
 C         0.1143592928       -6.9485071212        1.3118364547
 C        -1.3939928959       -9.0162606277        4.2487874617
 C         1.0571290867       -8.8658582009        3.5245549491
 O        -0.3920125453      -10.1782041363        1.0177860927
 O        -2.0655302792       -7.4984443517        2.0948221119
 C        -0.6199538612       -5.7121686434        0.6932076575
 C         0.2255255797       -4.9262251726       -0.3316050163
 C        -0.3883052445       -3.6662620365       -1.1825352765
 C         0.7567022135       -2.4923469227       -1.3345196368
 C         2.0533251196       -2.8971269339       -2.1749325693
 O         1.4018006483       -5.2662515932       -0.6411129824
 O         0.7088564084       -1.6560058462       -0.4857247334
 C        -0.7218220164       -4.1314215393       -2.6450585971
 C        -1.5121808911       -2.8965427308       -0.6096734531
 C         3.0851720582       -1.8699836774       -1.8169174356
 C         2.6072256222       -0.4798181416       -1.7939385501
 C         3.4922920463        0.5476344768       -0.9689581573
 C         3.7515930670        1.7804250511       -1.9949188790
 C         5.2158928049        2.4566329988       -2.0975148227
 C         2.6382785703        0.9009642966        0.3043535976
 C         4.7914449236       -0.1414220808       -0.5243685357
 O         1.6837397556       -0.1208759287       -2.4869145436
 O         2.8479245726        2.4523676383       -2.4396101143
 C         5.7113064856        2.9103634815       -3.5268261260
 C         5.9121554179        1.7062429605       -4.5019299493
 C         5.9851139347        1.9835380982       -6.0356749887
 C         4.5539476699        2.4069271143       -6.5242090264
 C         3.5159423479        1.4086699358       -7.0738546255
 O         5.9386794322        0.5435262844       -4.1645196902
 O         4.2025354428        3.5521945376       -6.4047967198
 C         7.0247739996        3.0829382683       -6.4514642293
 C         6.4445679216        0.5942898651       -6.7249882798
 C         2.1078129901        2.0557764679       -7.1380278366
 C         1.5722711959        2.4775485911       -5.7659642559
 C         0.7979213267        3.8066289617       -5.7583756847
 C        -0.6281502507        3.6456983573       -5.0675499440
 C        -1.6042725510        4.9489972008       -5.0673944474
 C         1.6429219988        4.6872373390       -4.8353419601
 C         0.6303318513        4.4740838907       -7.1521490180
 O         1.7171099662        1.7048120216       -4.8768853514
 O        -1.0172873709        2.6276431382       -4.5641326072
 C        -2.4011818687        4.7414769655       -3.7081702852
 C        -1.5865833945        4.5181826331       -2.4592190362
 C        -2.3304375141        4.1317434443       -1.0466300890
 C        -2.2638012492        2.6041834392       -0.8707548017
 C        -3.3509935192        1.8172012490       -0.1235550489
 O        -0.4050322562        4.7810214337       -2.3062009872
 O        -1.2538185177        1.9924409547       -1.2071795532
 C        -1.5029374322        4.8107184912        0.0955980017
 C        -3.7156571065        4.7750415207       -1.0435479000
 C        -3.8307465158        2.1859117934        1.2375276499
 C        -2.8323628254        2.3262098003        2.4635620410
 C        -3.3652558206        2.8877499528        3.8136171869
 C        -4.4129030526        1.7437867819        4.3765219289
 C        -4.1151553841        1.1677690433        5.7480390923
 C        -2.2263526196        3.1394490135        4.8688828303
 C        -4.2681303408        4.2278895294        3.7661815289
 O        -1.7201319516        1.9566809577        2.3309133098
 O        -5.3185101347        1.3803320346        3.7077555405
 C        -5.2732610337        0.4698751994        6.4659179061
 C        -4.8274260422       -0.2041475980        7.7855731632
 C        -6.0348451280       -0.1968119624        8.8904513430
 C        -6.0627709722        1.3332345757        9.3082326080
 C        -4.8952259703        1.8217184095       10.1277192540
 O        -3.6794536719       -0.5767369303        7.9421963607
 O        -6.8710272969        2.0742284590        8.7950312400
 C        -7.5209879899       -0.4383969605        8.3017744691
 C        -5.6666704234       -1.0570137988       10.0358410903
 H        -0.7085925074      -12.5102666655        1.8801135313
 H         0.1088385500      -12.1851633744        3.4654908755
 H        -1.6787498612      -11.8760512951        3.2688454077
 H         1.0088888832       -6.7313066925        1.8689168233
 H         0.3942422093       -7.6940005305        0.5676304214
 H        -2.3727592124       -8.7281022108        3.9044747611
 H        -1.1527704873       -8.2143721226        4.8920942684
 H        -1.3625371738       -9.9553933365        4.8111154881
 H         1.6618282547       -8.4894817407        2.7370803609
 H         1.1674616775       -8.0719098350        4.2640668184
 H         1.6381914141       -9.7403357790        4.0384777415
 H        -1.3819277794       -6.0312376577       -0.0111458936
 H        -1.1215119396       -5.1876652692        1.3970288702
 H         2.4673445586       -3.7323614897       -1.6366808295
 H         1.7324633632       -3.0773602287       -3.1497589229
 H        -0.8754176044       -3.1926041852       -3.0554207228
 H        -1.5358782451       -4.8055862995       -2.8128306412
 H         0.2398954432       -4.4776436905       -3.1080219455
 H        -2.4398335078       -3.3987445584       -0.5569351919
 H        -1.2323527211       -2.4511771236        0.3537779099
 H        -1.7518980088       -2.0991930476       -1.3268054038
 H         3.9283628239       -1.8518196093       -2.5808399481
 H         3.4099432148       -2.2273459999       -0.7833932769
 H         5.1390606455        3.3458402247       -1.4508275525
 H         5.9669135368        1.8045714325       -1.7161259290
 H         1.9880104999        1.7897214837        0.1855949323
 H         3.2990083085        1.2296277021        1.0825329700
 H         2.0991690499       -0.0499692866        0.5782665945
 H         4.4091823329       -0.8749144565        0.1975040310
 H         5.2133699004       -0.5797341884       -1.3405587051
 H         5.4446496881        0.5900376089       -0.0169132605
 H         5.0270244552        3.6490593488       -3.8839960490
 H         6.6212276189        3.4316564651       -3.1501749248
 H         3.9399113370        0.8743676743       -7.9606784567
 H         3.4181544083        0.6427780124       -6.3177967268
 H         6.8522981094        3.9914239667       -5.8954044546
 H         6.8747964890        3.2802786846       -7.5014142333
 H         8.0721540014        2.6790901009       -6.3952539258
 H         5.7338970101        0.3152603103       -7.5007331350
 H         7.3865463626        0.7324206474       -7.1640976982
 H         6.4953587887       -0.2308087214       -6.0252086723
 H         1.4201961489        1.3988350667       -7.6503882451
 H         2.2956110073        2.9568229062       -7.7338718285
 H        -1.1173116923        5.8893671509       -5.2918039431
 H        -2.2535624746        4.7200326398       -5.8947240784
 H         1.5055733550        4.5146146937       -3.7843398839
 H         1.5501057640        5.7023432498       -5.2004650022
 H         2.7456043257        4.6100625585       -5.0538813521
 H         0.0277399150        5.3894505816       -7.0809893263
 H         1.6248616125        4.8035937331       -7.4884310611
 H         0.1562566951        3.8434042382       -7.9220136289
 H        -3.1413076315        5.5958157762       -3.5941641277
 H        -2.8907235083        3.7931371206       -3.7629219264
 H        -4.2012903272        1.6762927183       -0.7795677299
 H        -2.9308235534        0.7873826197       -0.1791686042
 H        -0.5050888981        4.6054517326       -0.0703178893
 H        -1.7495703905        4.3316843689        1.0828340690
 H        -1.6862402284        5.8846475077        0.0588248590
 H        -4.0015770993        4.6101630403        0.0309153342
 H        -3.5860651239        5.8267286499       -1.2631866339
 H        -4.4373324886        4.1842889280       -1.7116698043
 H        -4.5251979413        1.3882141405        1.6031127230
 H        -4.5632407238        3.0360587059        1.3264231250
 H        -3.3865496277        0.4463791154        5.4899215797
 H        -3.7614087006        1.8255930395        6.4663401856
 H        -1.8491822349        2.1330921202        5.1107622957
 H        -2.4392919296        3.6011405516        5.8308700901
 H        -1.4369507916        3.6715818349        4.3814785370
 H        -4.7570899737        4.3451913875        4.7112868234
 H        -3.7089719826        5.1815863765        3.6474678924
 H        -5.0398413114        4.2396915998        2.9675478273
 H        -6.0758924868        1.2000246587        6.6402760473
 H        -5.6032636482       -0.3301900920        5.7256246217
 H        -4.0204039899        1.2948740335        9.8210033779
 H        -4.8160835283        2.8286355595        9.8850579412
 H        -5.0792747022        1.7575492882       11.1715849529
 H        -8.2270888670        0.2665133866        8.7233304942
 H        -7.8365227175       -1.4358602346        8.4819714263
 H        -7.5750526357       -0.1663237741        7.2437445688
 H        -6.1368160586       -0.8644744115       11.0234756007
 H        -5.9565788410       -2.0628392750        9.9096192675
 H        -4.6295518984       -1.0438043786       10.3234344446
 Na        0.5282630978        1.8757550102       -2.9141357024
