155

 C        -4.5869384373       -6.5314383386       -4.5781927282
 C        -4.2359251218       -5.1522416462       -4.8439613839
 C        -4.5698129389       -4.5548267444       -6.2990093958
 C        -5.5703645317       -3.4189549855       -6.2624344393
 C        -6.8875524612       -3.2834669093       -7.0753341920
 C        -3.2366910983       -3.8397184509       -6.7774910060
 C        -4.9735647082       -5.5722187901       -7.4570459973
 O        -3.7093046711       -4.3807997533       -4.0865965914
 O        -5.3917582444       -2.5017111718       -5.4814325037
 C        -8.0796734435       -3.0450985437       -6.1657755242
 C        -8.2747167551       -4.0981537353       -5.1053137180
 C        -9.6314959702       -4.2957655916       -4.3538080483
 C        -9.3494448758       -3.4269696416       -3.0382792942
 C        -8.4034988871       -3.9195156402       -2.0281141165
 O        -7.3550069375       -4.8758796387       -4.9321343469
 O        -9.6175534264       -2.2699448043       -2.9030182993
 C       -10.8801970858       -3.8500939796       -5.0741898389
 C        -9.6859556712       -5.8490665288       -4.0397161559
 C        -7.9839262387       -2.8083141320       -1.0211960943
 C        -6.6481762431       -2.1890137664       -1.2933493223
 C        -5.4990282456       -1.8032319275       -0.1197994039
 C        -4.2185565479       -1.1208808823       -0.7443526024
 C        -4.0046362393        0.4318621379       -0.7519083186
 C        -6.2780131875       -0.9416450788        0.9434986952
 C        -5.1252955179       -3.1702771477        0.4148079179
 O        -6.3692771559       -1.8041936481       -2.4436469586
 O        -3.3783818888       -1.8230252104       -1.2200554170
 C        -2.8976017623        0.8767020671       -1.7401449490
 C        -3.3826323702        0.8509307598       -3.1884371868
 C        -2.4833261805        1.4589372143       -4.3439824118
 C        -1.7899281071        0.1393180673       -4.8206586612
 C        -0.4779533271        0.2239499741       -5.4364064988
 O        -4.5359860121        0.4109161043       -3.4196208568
 O        -2.3153392290       -0.9708109036       -4.6621214235
 C        -3.3565183089        2.1553472363       -5.3442411122
 C        -1.4135139074        2.4558448407       -3.8317988319
 C         0.5096895931       -0.9368082496       -4.9648814528
 C         1.0100621986       -0.6148766045       -3.4627812344
 C         2.2710554515       -1.3905150714       -2.8389110380
 C         1.8803439176       -1.5289002663       -1.3070289383
 C         1.6602124361       -0.2652744545       -0.3712082111
 C         2.6285005289       -2.6004225595       -3.6448119017
 C         3.4686940814       -0.3884540673       -3.0711359804
 O         0.3737636358        0.1885775178       -2.8371109237
 O         1.7670919457       -2.6492007477       -0.8921614341
 C         2.5621533626       -0.5713742183        0.8498928541
 C         4.0958534021       -0.0040056680        0.8497626117
 C         4.9261282579       -0.2390840733        2.0945426753
 C         4.3976269526        0.6648881366        3.2420458483
 C         4.9978007596        0.5632381496        4.6363414391
 O         4.6243788441        0.3816874337       -0.1544374784
 O         3.4083778091        1.4001545000        3.0433791899
 C         4.8730479410       -1.7452702968        2.4534042821
 C         6.3561189350        0.2311274314        1.8801655142
 C         5.4820946155        1.9312823451        5.1001242355
 C         6.1609521078        1.6932685396        6.4150737954
 C         7.1415866098        2.9187543702        6.8505861252
 C         6.4457933780        4.2735634357        7.0508313013
 C         7.2014823802        5.3393573392        7.7499664382
 C         7.9405411746        2.4756326756        8.0667486056
 C         8.1315517087        3.3277540964        5.6657965950
 O         5.8966076361        0.7923851102        7.1577434111
 O         5.3356466089        4.4612088141        6.5256465637
 C         6.3288957382        6.2453270209        8.5996472732
 C         5.4609195814        7.2476637938        7.7868209893
 C         5.6914519133        8.7928464408        7.9162587854
 C         5.3216042203        9.1153095286        9.3641492911
 C         3.9999261174        9.9184320078        9.6252275189
 O         4.7164839346        6.8366974431        6.9502601861
 O         6.0620588893        8.9053059018       10.2927116114
 C         7.1228973003        9.2411114206        7.6049084081
 C         4.6831285034        9.4049148095        6.8910304495
 H        -4.5837788610       -7.0945990264       -5.4222650052
 H        -3.9103067554       -6.9460848764       -3.8103667998
 H        -5.6245621528       -6.4874297476       -4.1400785726
 H        -6.7663354357       -2.4206147000       -7.6868326649
 H        -7.1921047727       -4.2102899162       -7.5803582820
 H        -3.1758952312       -2.9248195410       -6.1360364612
 H        -3.2488065853       -3.6516159719       -7.8093442980
 H        -2.3323231025       -4.3747798587       -6.5226681264
 H        -4.1672780728       -6.2604276549       -7.7666978675
 H        -5.8437609541       -6.0915518915       -7.0392508236
 H        -5.2999022682       -5.1331634000       -8.3271662941
 H        -7.9726927195       -2.0709940358       -5.7928174847
 H        -8.9775999061       -2.9515197540       -6.8870120324
 H        -8.8014171400       -4.7802708492       -1.5495318278
 H        -7.5168506790       -4.3671388233       -2.5244150131
 H       -11.6241421090       -4.6449644916       -5.2986926436
 H       -10.7270399656       -3.4945612269       -6.0913199236
 H       -11.3658575001       -3.0155894440       -4.5525316876
 H       -10.5428193044       -5.8682064726       -3.4321131073
 H        -9.7575580421       -6.4529206408       -4.9968525787
 H        -8.7901200553       -6.1758759313       -3.5033078036
 H        -8.0706931563       -3.2892017860       -0.0808100938
 H        -8.6034222714       -1.9452807154       -1.1811995948
 H        -4.9032209088        0.9350089452       -0.9768615246
 H        -3.7179495854        0.6547107182        0.2526093675
 H        -6.2782481279        0.1281089550        0.7738118604
 H        -5.7422359074       -1.0695122691        1.8954307418
 H        -7.3437711333       -1.2863742621        1.0893452096
 H        -4.7829538916       -3.8878870588       -0.3868177648
 H        -4.1435211823       -3.0751652181        0.9247324693
 H        -5.8563555312       -3.7151206624        0.9335622328
 H        -2.4817673082        1.8126514324       -1.4266656947
 H        -2.1571764309        0.0799265934       -1.5344475298
 H        -0.6057649152       -0.1178570788       -6.4928108473
 H         0.0507487675        1.1352606807       -5.3205914532
 H        -3.9846956637        2.8393445640       -4.7400204576
 H        -3.9395683441        1.4955240251       -5.9075338112
 H        -2.7914000923        2.6716828650       -6.1669390245
 H        -0.7974076867        2.6371771476       -4.7006846220
 H        -1.7465237889        3.4265178886       -3.4234614589
 H        -0.7449766384        2.0375464062       -3.0427373587
 H         1.4429828655       -0.9484586845       -5.5742736327
 H        -0.1335235940       -1.8533685916       -5.1143243754
 H         2.0382477614        0.7034377307       -0.7331380894
 H         0.6062828068       -0.3210940308       -0.1223140481
 H         2.6155508496       -2.2994650025       -4.7238267551
 H         1.9723856281       -3.4158298720       -3.4082573547
 H         3.7342231754       -2.9379017853       -3.4565168575
 H         3.2851597204        0.4057841705       -2.3436025430
 H         4.4012507561       -0.9010769871       -2.8715632409
 H         3.4901397083       -0.0846027298       -4.1996377792
 H         2.1454080601       -0.2586837351        1.8626821412
 H         2.7843154446       -1.6683968083        0.8996490663
 H         4.2634238312        0.2379829994        5.3435348612
 H         5.8898512444       -0.0872015926        4.6124633054
 H         4.9075889271       -2.3042046128        1.5643142097
 H         3.9496211404       -1.9975953616        2.8973662445
 H         5.6294590111       -2.0037755208        3.1906090289
 H         6.4915020807        1.3355881868        1.8758720649
 H         7.0283501790       -0.0881811247        2.7311975586
 H         6.7543951648       -0.2065438170        0.9558482297
 H         4.7880481286        2.7282849717        5.3204752716
 H         6.1971197087        2.3911394920        4.3821662749
 H         8.0387566074        4.9459978452        8.2833747860
 H         7.6384935777        5.9785862383        6.9350074082
 H         8.4618121366        1.5516222550        7.8696500342
 H         7.2891055238        2.3302517749        8.9224754895
 H         8.6392744154        3.2359621338        8.5770436828
 H         7.5009753451        3.9086550226        4.9161889466
 H         8.9075958675        4.0208865534        5.9651051862
 H         8.5346650796        2.4361277162        5.1548323584
 H         5.7280337278        5.7029536751        9.2428204733
 H         6.9784890398        6.8084831053        9.3346622058
 H         3.0578204341        9.4968348564        9.2194729557
 H         3.9079364119        9.9332553723       10.6869642378
 H         4.0847585178       10.8777068790        9.1984396637
 H         7.3896898112        8.7164474671        6.6689439774
 H         7.7597336479        8.9009233578        8.3612469826
 H         7.0646594893       10.2980235465        7.6475575030
 H         3.6391290921        9.5286946354        7.3000989193
 H         5.0014884614       10.3454656110        6.5277656370
 H         4.7318442395        8.7384900752        6.0352363648
 Na       -4.2840683810       -1.9184911190       -3.5164843584
