155

 C        -4.7414080442       -6.2089245388       -3.8578421567
 C        -4.5143208151       -4.8343150567       -4.5554582712
 C        -4.4285421880       -4.6244357209       -6.0885240935
 C        -5.6187852926       -3.5691424898       -6.4713843467
 C        -6.7599433911       -4.0108080922       -7.3263791533
 C        -3.0839283775       -3.8972048385       -6.3769251529
 C        -4.4961205671       -6.0291480699       -6.8333075378
 O        -4.4558930766       -3.8901075584       -3.7944387494
 O        -5.4680130936       -2.3628821372       -6.2349336168
 C        -8.1808233530       -3.6299715615       -6.7043331284
 C        -8.3938891119       -4.3980213428       -5.4152307938
 C        -9.6772156339       -4.4132843181       -4.6323373486
 C        -9.2704919620       -3.7170821013       -3.2086216489
 C        -8.3522426074       -4.4227639441       -2.1875781848
 O        -7.4833540665       -4.8765047873       -4.7941756469
 O        -9.8940117945       -2.7294227953       -2.8883491364
 C       -10.8455263320       -3.6589249034       -5.3582756636
 C        -9.9982081863       -5.8740127380       -4.3779460465
 C        -7.8300463142       -3.3318858330       -1.1965954612
 C        -6.6476421390       -2.4927626980       -1.6839831244
 C        -5.5935272295       -1.9114223912       -0.4267743368
 C        -4.3666650006       -1.1166679913       -1.0136563507
 C        -4.1392056207        0.3599904702       -0.7155724283
 C        -6.4659332890       -0.9840200290        0.4886663023
 C        -5.1233616471       -3.1628925558        0.3408830454
 O        -6.2591827683       -2.3533427952       -2.8072675418
 O        -3.5109926425       -1.7519887497       -1.5932334184
 C        -3.0372157714        0.9162802455       -1.5761320913
 C        -3.4492019438        0.9331047905       -2.9924838276
 C        -2.5028459999        1.3215981966       -4.2326409441
 C        -1.6496716101        0.0300486571       -4.6528157358
 C        -0.4584374217        0.4606027344       -5.5289634379
 O        -4.5520500141        0.5485071956       -3.2577136044
 O        -2.1629105584       -1.0338536133       -4.4854301617
 C        -3.3924094653        1.6705441891       -5.4197228555
 C        -1.7143680459        2.6056692872       -3.7908628642
 C         0.8462291464       -0.2618806346       -5.1538084754
 C         1.2405495689       -0.2959201146       -3.6597714170
 C         2.6938140234       -0.5935144873       -3.1559053085
 C         2.7442059350       -0.9726908091       -1.5226673355
 C         2.0456055592       -0.1584467886       -0.3870939020
 C         3.3515998114       -1.7206982402       -3.9421223766
 C         3.4456354731        0.7658568391       -3.4261561854
 O         0.4052630086        0.0529881870       -2.8406102917
 O         3.4699325939       -1.8746565709       -1.1660680894
 C         2.5941523552       -0.3397753323        1.0267379926
 C         4.0556270627       -0.1879438814        1.1617690030
 C         4.7280101689       -0.4090204092        2.5864952885
 C         4.0819878973        0.6208136232        3.6387475004
 C         4.7803537760        0.6353752962        5.1377438726
 O         4.7174487028        0.1019059459        0.1725717706
 O         3.1503162123        1.2952054819        3.3769423720
 C         4.2396163136       -1.8097855828        3.1836640574
 C         6.2496710939       -0.4629069480        2.4406681962
 C         5.7451080099        1.7597435029        5.2139173859
 C         6.3132270468        1.8998277653        6.6335686857
 C         7.2987303605        3.0112534793        7.0438551990
 C         6.4467964328        4.3117987979        6.9803672455
 C         6.9588700041        5.4638614007        7.8577717639
 C         7.9680049515        2.6802164788        8.3168409950
 C         8.2212177172        3.2647513164        5.7399745119
 O         6.2540575582        0.9031413592        7.4004148050
 O         5.5685815518        4.4239136901        6.2197193819
 C         5.8058265248        6.2137434749        8.6144154065
 C         5.2256384260        7.3005576418        7.6880924226
 C         5.6875191613        8.8276964312        8.0997335428
 C         4.7994068790        8.9670771768        9.3640582691
 C         3.2477917758        8.8761353733        9.2007434746
 O         4.6187824695        6.9752595045        6.6661107816
 O         5.3258357764        9.2166690841       10.4332195365
 C         7.1820854753        8.7949990554        8.3571444518
 C         5.3433945567        9.7052924381        6.9006625223
 H        -3.7938152703       -6.4205164186       -3.1518549074
 H        -5.7223403637       -6.3312878008       -3.3880143838
 H        -4.6226424989       -6.9954863274       -4.6231364316
 H        -6.5636915110       -3.7256619213       -8.3916208923
 H        -6.7223259421       -5.1233756905       -7.4886358038
 H        -3.1175421447       -2.9280577913       -5.8727557070
 H        -2.9272804015       -3.6385313127       -7.3905234379
 H        -2.2343992974       -4.5662906674       -6.0265518506
 H        -3.7717031629       -6.7845133243       -6.5436389901
 H        -5.4523528422       -6.4905967823       -6.5585960260
 H        -4.5474251010       -5.8804379707       -7.9423133613
 H        -8.2178150792       -2.6113033333       -6.5065728483
 H        -8.9714327212       -3.6803691844       -7.4741686123
 H        -8.9176433271       -5.1365633293       -1.6136409938
 H        -7.4537717500       -4.8519724343       -2.5902669928
 H       -11.2331430673       -4.2714271419       -6.2053924275
 H       -10.4973396193       -2.7101991100       -5.6068065617
 H       -11.6823229029       -3.6015772304       -4.6426921822
 H       -11.0368247213       -5.8961009470       -4.2103601568
 H        -9.8821211473       -6.4060002552       -5.3675582471
 H        -9.3517294533       -6.2219931467       -3.6151721349
 H        -7.6851141957       -3.8515431993       -0.2465585508
 H        -8.5587563738       -2.5139086088       -0.9925826515
 H        -5.0998421390        0.8739947154       -0.8678497497
 H        -3.8453884156        0.4707948360        0.3643978213
 H        -6.8266026889       -0.1553144302       -0.1151768744
 H        -5.8188942215       -0.5980908844        1.2455602466
 H        -7.3575780670       -1.5376178068        1.0083618752
 H        -4.5093504544       -3.6589863611       -0.3446826076
 H        -4.5459887556       -2.9125838860        1.2377253295
 H        -5.8492957026       -3.8239506159        0.7761649172
 H        -2.7539545009        1.9278535893       -1.2416207433
 H        -2.1034716118        0.3161224962       -1.4273437798
 H        -0.6519813046        0.2656074183       -6.5807645737
 H        -0.2057388198        1.5118223188       -5.6391852509
 H        -3.8186146228        0.7369429371       -5.8853886705
 H        -2.8806998310        2.3038975055       -6.1213637148
 H        -4.2818981795        2.1787428515       -5.1687124708
 H        -1.4254586700        3.1497998482       -4.6293725138
 H        -2.3200072878        3.3074317286       -3.1993194042
 H        -0.7496124134        2.3713594150       -3.2646075617
 H         1.7152665125        0.0832386439       -5.6592392975
 H         0.7306855463       -1.2667319467       -5.5249518499
 H         2.0230004236        0.9024055220       -0.5447042118
 H         1.0562583398       -0.4855246323       -0.5971383875
 H         3.5342161557       -1.5099037483       -4.9863613033
 H         2.6907725662       -2.6606163232       -4.0567088626
 H         4.2155833853       -2.0208316677       -3.4589494566
 H         4.4327635440        0.5048094879       -3.6583609897
 H         3.0830857557        1.2561509402       -4.3493134459
 H         3.4553278530        1.3932156012       -2.5940862555
 H         2.1617220746        0.4684922192        1.5881869705
 H         2.1674378077       -1.2668937797        1.4041561696
 H         3.9416047903        0.7441604873        5.8517920766
 H         5.1257380374       -0.3271088901        5.4629013898
 H         4.3271915141       -2.6436339295        2.4276051410
 H         3.2348476110       -1.6246777935        3.5022270123
 H         4.8930713515       -2.1147794015        4.0612547722
 H         6.5436626123        0.5329449365        2.1600278056
 H         6.9433002344       -0.8119260686        3.1642617614
 H         6.5637576005       -1.0560548825        1.5411827221
 H         5.1320392609        2.6426606345        4.8990044208
 H         6.6014206825        1.6414836128        4.4796665328
 H         7.6862571033        5.1359241397        8.5587200476
 H         7.5774938838        6.1999724645        7.2745892628
 H         8.5386624516        1.7686110819        8.2331131762
 H         7.2739379618        2.4750498248        9.0563354042
 H         8.7884735879        3.2918876674        8.6431365691
 H         7.6121652342        3.4758031761        4.9020370242
 H         8.8585335365        4.1902615834        5.8834242551
 H         8.9098004742        2.5069894589        5.4106521196
 H         5.0320787138        5.5099923699        8.8028120792
 H         6.2092881499        6.7248442269        9.5561879527
 H         3.0577220458        8.0340757052        8.5412448063
 H         2.6922479475        8.8380006427       10.1869762889
 H         2.8774034454        9.8051784483        8.7717469917
 H         7.7472811365        8.6456321263        7.4008833683
 H         7.3756184236        8.1272854272        9.2514263552
 H         7.5310642018        9.8419387678        8.6378726931
 H         5.8085609514       10.7082356103        6.9811666117
 H         5.6545438057        9.2206770349        5.9783969545
 H         4.2877505886        9.7965110097        6.8378610202
 Na       -4.2445111405       -1.6619390130       -4.1072519925
