155

 C        -4.5526188736       -6.7766557281       -4.1576626535
 C        -4.3832290830       -5.3081319121       -4.4953613786
 C        -4.1762597096       -4.8403107508       -6.0544726865
 C        -5.4091908181       -3.9012518675       -6.2994361569
 C        -6.7281091256       -4.2368519921       -7.2797063323
 C        -2.7822882051       -4.1774174178       -6.0435578860
 C        -4.1631302833       -5.9956330036       -7.0114363039
 O        -4.2914843280       -4.5073146435       -3.5834186871
 O        -5.3366150332       -2.7137761978       -6.0210260034
 C        -7.9681189134       -3.8131452844       -6.5522516839
 C        -8.4221482375       -4.7724027145       -5.4640264824
 C        -9.7566594796       -4.4291684985       -4.6749643080
 C        -9.2116880066       -3.5713556733       -3.4267969302
 C        -8.1625381322       -4.3023991772       -2.4274118602
 O        -7.7336676109       -5.7370948996       -5.1956980654
 O        -9.5269908511       -2.3939986144       -3.3306949270
 C       -10.7934685047       -3.4860777612       -5.3886102794
 C       -10.4095621706       -5.8299452697       -4.2450323427
 C        -7.8159819310       -3.3089923545       -1.3144808573
 C        -6.6098526268       -2.5017206509       -1.6741220463
 C        -5.6994321105       -1.8641184580       -0.4945148456
 C        -4.4082341628       -1.2428006688       -1.1385919447
 C        -4.2063577807        0.2431739861       -0.9302831752
 C        -6.5388185133       -1.0189222944        0.4561180589
 C        -5.1699901581       -3.1639495665        0.1808411642
 O        -6.3158824335       -2.5108566442       -2.8551379033
 O        -3.7576370870       -1.9204486592       -1.8682470993
 C        -3.0529166915        0.6940669084       -1.8137710123
 C        -3.5872496199        1.0984117457       -3.2516102455
 C        -2.5840624753        1.6541323355       -4.3410227330
 C        -1.7962675293        0.3180160778       -4.7745056551
 C        -0.3917224976        0.4784801907       -5.3648007529
 O        -4.7316585063        0.8820786162       -3.5351663946
 O        -2.3842352465       -0.7391000214       -4.8230065051
 C        -3.3196343166        2.2269446953       -5.5550222947
 C        -1.6077450132        2.6197466564       -3.7167732324
 C         0.7630434749       -0.4060507270       -4.8617522304
 C         1.3059067506        0.0915226881       -3.5126221509
 C         2.8438257148       -0.0026783662       -3.1745845314
 C         2.9766530208       -0.6303718881       -1.6561911674
 C         2.4536257417        0.1184145094       -0.4665037196
 C         3.7053163960       -0.8947963628       -4.0764751801
 C         3.3996624441        1.4748201233       -3.3083487388
 O         0.5812976415        0.5879967867       -2.6890263202
 O         3.2425980079       -1.7995150089       -1.6496495781
 C         2.8098634069       -0.4130608361        0.9950309814
 C         4.2106894124       -0.1171911599        1.4681385618
 C         4.6114493187       -0.7987045850        2.8391874541
 C         4.1263677653        0.3441015103        3.8159544994
 C         4.8556968739        0.6566560874        5.0822718327
 O         4.8910567581        0.7184769051        0.8867649260
 O         2.9352144878        0.7273551230        3.7919582369
 C         3.7958784953       -2.0753943324        3.3290420600
 C         6.0861353907       -1.0421296679        2.8326584560
 C         6.0043466175        1.6771105137        5.0555381250
 C         6.6398565063        1.6155068725        6.5718459498
 C         7.3259374290        2.9154220887        7.0158837756
 C         6.3889130027        4.2518661779        6.9182099693
 C         6.4237621428        5.2014445322        8.0913933550
 C         8.1664790813        2.6108654433        8.2641919678
 C         8.3962120541        3.3040835963        5.9388056550
 O         6.4553030250        0.6403272350        7.3162341258
 O         5.7949398280        4.5876904254        5.9368949275
 C         5.1259734382        6.0145453983        8.1897608572
 C         5.0367780410        7.4506985674        7.5641022987
 C         5.5115849827        8.8695680686        8.3612007705
 C         4.5245133845        9.1904346378        9.4526006284
 C         3.0064822710        9.1885916512        9.0732467598
 O         4.6047621056        7.5341223866        6.4276910837
 O         4.8448329523        9.4937860286       10.6204608421
 C         6.9389177456        8.6646571092        8.9827566940
 C         5.4948980649        9.9983638295        7.3569134485
 H        -4.8507074442       -6.9696059823       -3.0629288722
 H        -5.3468330945       -7.1203140652       -4.7458082669
 H        -3.6782731228       -7.2749283404       -4.3283561561
 H        -6.5173872778       -3.6972412389       -8.1658575410
 H        -6.6493565674       -5.3169461754       -7.4728743156
 H        -2.6502393439       -3.1464851659       -5.5856606064
 H        -2.4643175032       -4.2331808479       -7.0982026035
 H        -2.1094192796       -4.8560400152       -5.5444763107
 H        -3.3121406458       -6.6661135829       -6.8220828121
 H        -5.0796423571       -6.5837173772       -6.9676458405
 H        -4.0225931580       -5.7057459347       -7.9855032981
 H        -8.0184690594       -2.7898216524       -6.0767018083
 H        -8.7426541844       -3.8565798300       -7.3343833743
 H        -8.6880941776       -5.1238229328       -2.0252442668
 H        -7.2069726919       -4.5209440660       -2.9113140603
 H       -10.7667023805       -3.7344766443       -6.4720924575
 H       -10.5291310151       -2.4375123367       -5.3404801410
 H       -11.7656291171       -3.6102963339       -4.8838375829
 H       -11.0942152999       -5.6399964006       -3.4650235241
 H       -10.7831315043       -6.3148200737       -5.1609852096
 H        -9.5502141575       -6.3830708024       -3.9164932419
 H        -7.5877618671       -3.6662946398       -0.3321152633
 H        -8.6819167284       -2.6776720482       -1.1824676668
 H        -5.1428835671        0.7103643391       -1.2478676636
 H        -4.0765925989        0.4648159395        0.1053553323
 H        -6.9312596491       -0.1227082328        0.0129087670
 H        -5.8943008810       -0.6452352603        1.2776280376
 H        -7.1984573059       -1.7570164901        0.8998266329
 H        -4.7130581112       -3.8669370929       -0.5471857180
 H        -4.3474861282       -2.8714635800        0.8030410992
 H        -5.9324052366       -3.6758458015        0.6531708285
 H        -2.5846547118        1.5450063404       -1.3228704664
 H        -2.2343555184       -0.0159670274       -1.9247591595
 H        -0.4514038120        0.2193414332       -6.4392679357
 H        -0.0629663935        1.5237378484       -5.3255957681
 H        -3.1517244360        3.3129259230       -5.7423403526
 H        -4.3277318428        2.0573624315       -5.3921831141
 H        -3.0255779271        1.8272708775       -6.5438739950
 H        -1.1316169402        3.1220300622       -4.5771556745
 H        -2.1460451286        3.3390268958       -3.1110554454
 H        -0.7685778934        2.1568966677       -3.1600122809
 H         1.6097995207       -0.3546226025       -5.5846767803
 H         0.4525139161       -1.4647224134       -4.8371980299
 H         2.6905141267        1.1493193382       -0.5558567513
 H         1.3941876856        0.1438042641       -0.7132930170
 H         3.7532197068       -0.5234559630       -5.1236745999
 H         3.3216810317       -1.9870628163       -4.0332840787
 H         4.7345280388       -1.0872047020       -3.8599456283
 H         4.0301009063        1.8103317478       -2.5293734343
 H         3.7475737147        1.7685887964       -4.2579179821
 H         2.4827591902        2.1102584240       -3.1691515235
 H         1.9666014592        0.0459844364        1.5847255171
 H         2.5291923532       -1.4673841383        1.0172279645
 H         4.0941031207        1.0945301621        5.6508035711
 H         5.3326568841       -0.2668911359        5.5143367780
 H         3.6946461346       -2.7642055527        2.5014683208
 H         2.7899562446       -1.9082763895        3.6889867967
 H         4.4244372313       -2.4488835615        4.1455075370
 H         6.7631971727       -0.1838812867        2.6013261237
 H         6.4406963503       -1.3243000554        3.8752063004
 H         6.3644656673       -1.9339547636        2.2407882440
 H         5.7747150890        2.7315203587        4.8681272769
 H         6.8496154305        1.3114323622        4.4125743210
 H         6.6098427951        4.7010060503        9.0800600604
 H         7.2490624834        5.8240381621        7.8767107006
 H         8.8578158673        1.8146089052        8.0282419013
 H         7.6098777208        2.2582368150        9.0949107688
 H         8.6062639679        3.6028502080        8.6844203312
 H         7.9636115321        3.5834909678        4.9329115055
 H         9.0737267256        4.1699954858        6.2774254823
 H         9.0678681011        2.4409668073        5.7350068186
 H         4.3260369292        5.4358264233        7.7463950578
 H         4.8350324301        6.0712009316        9.2208567742
 H         2.3902874695        8.2857107743        9.3465915600
 H         2.6188569857       10.0540373513        9.5883897052
 H         2.9222925707        9.2542565905        7.9977726895
 H         7.8141748565        8.6006974269        8.2025882358
 H         7.0717020960        7.6866993166        9.4787741416
 H         7.0636153315        9.3711241317        9.8284569911
 H         4.6788282974        9.7990668409        6.6278696575
 H         5.4044561603       10.9619477219        7.8028588937
 H         6.3833205295        9.9543550579        6.7347073319
 Na       -4.3150915986       -1.9089569453       -3.9703794853
