155

 C        -4.3971493560       -6.9628864377       -4.3325210011
 C        -4.2572314552       -5.5342027184       -4.6359771179
 C        -4.1345464070       -5.0256358965       -6.1801502541
 C        -5.3195233690       -4.0857534333       -6.3371796391
 C        -6.4769718316       -4.5567907240       -7.3793390950
 C        -2.7787862664       -4.3033871219       -6.4690583855
 C        -3.9455782362       -6.2292514681       -7.1975890751
 O        -4.3169215002       -4.6714128273       -3.7622240672
 O        -5.3183855115       -2.9695348425       -5.8156793858
 C        -7.8597250843       -4.1198695031       -6.7783598216
 C        -8.4146483014       -5.0226552744       -5.5219025021
 C        -9.7292229047       -4.4146144405       -4.7815344111
 C        -9.1061914678       -3.4094420989       -3.6591436679
 C        -8.5563300538       -4.1372608476       -2.3977512906
 O        -7.9412159162       -6.0279563049       -5.1193011694
 O        -9.2479187052       -2.2467503976       -3.8428525416
 C       -10.6032331365       -3.5576939111       -5.7444835130
 C       -10.5905693393       -5.5680007631       -4.1012093633
 C        -7.7966098057       -3.2686896749       -1.3330516883
 C        -6.5050443760       -2.5167363155       -1.6640783506
 C        -5.5941015116       -2.1020696116       -0.4352873970
 C        -4.2742844730       -1.3551638373       -0.9814308033
 C        -4.3812414441        0.1547127173       -1.2083032990
 C        -6.3760386475       -1.1421040962        0.4649855097
 C        -5.1946459420       -3.3709564153        0.4263330875
 O        -6.0827281341       -2.3464210740       -2.8216928511
 O        -3.3127252067       -1.9961069804       -1.2205617381
 C        -3.2250079594        0.7847411432       -1.9356337948
 C        -3.7247085680        1.4111446429       -3.3878463767
 C        -2.5354324556        1.6166669263       -4.3789724193
 C        -1.8317043645        0.3109256984       -4.7765638185
 C        -0.5352129221        0.4777896055       -5.4536436229
 O        -4.8741571864        1.7298031182       -3.5218011930
 O        -2.2870420388       -0.7876720660       -4.6022770953
 C        -3.0940547043        2.1488816963       -5.7621056939
 C        -1.6220429177        2.7584856807       -3.8132980992
 C         0.7083706312       -0.2894629987       -4.8891728692
 C         1.2010476833        0.4748640953       -3.6034028249
 C         2.7227041957        0.3822067834       -3.1579072870
 C         2.8373529173       -0.4532890049       -1.6728390292
 C         2.8654057974        0.3492966664       -0.4094914763
 C         3.4881890892       -0.4285591989       -4.1088834189
 C         3.1053633449        1.8505599437       -3.0770177443
 O         0.4369039675        0.9547006012       -2.7961132425
 O         2.9287271897       -1.6831276623       -1.7603243723
 C         2.9240719279       -0.5187672624        0.8437101971
 C         4.2753811614       -0.1531911732        1.5370017521
 C         4.5143012958       -0.7853483007        3.0036183342
 C         3.9749782338        0.2498772264        4.1586878661
 C         4.8422311347        0.3303538139        5.5705330431
 O         5.1271946340        0.5210401851        1.0258131577
 O         2.9040773955        0.7536898227        4.0533989203
 C         3.8352828077       -2.1495106761        3.0870737550
 C         6.0654753771       -1.0762882192        3.1304345779
 C         5.6487187991        1.5989125615        5.5723527670
 C         6.5695726748        1.7565334167        6.7465512306
 C         7.3031318238        3.2392423427        6.8581385894
 C         6.1218225031        4.3148470090        6.8249735181
 C         5.9518905578        5.0369617165        8.1918140492
 C         8.2873827239        3.1778509016        8.1415316242
 C         8.2761873404        3.5792252318        5.6570459855
 O         6.8877607569        0.9170658918        7.5844238172
 O         5.4738199755        4.5452789556        5.8968389172
 C         4.8592813044        6.1576474408        8.2201783382
 C         5.0447298966        7.5112604847        7.4783827723
 C         5.4945636521        8.6533073538        8.4564628795
 C         4.3134169189        8.9874520583        9.3861756762
 C         2.9281282865        9.1895974169        8.7932525368
 O         4.9364579591        7.6206017468        6.2791630167
 O         4.4516614623        9.0141506307       10.5730521426
 C         6.7081768561        8.1048747802        9.2635457449
 C         5.9513377840        9.9174559366        7.5894776811
 H        -4.3509788903       -7.0935751836       -3.2458435305
 H        -5.4217824571       -7.2023038335       -4.5425056752
 H        -3.7222494525       -7.5745865985       -4.9770287387
 H        -6.2105778144       -4.1173675447       -8.3105433630
 H        -6.1758198710       -5.6100238644       -7.1663083177
 H        -2.4468255762       -3.7353218014       -5.5832756498
 H        -2.8063675200       -3.7564691113       -7.3758836238
 H        -2.0216836213       -5.0772837772       -6.4600597590
 H        -3.0713761657       -6.9112201670       -7.0062384711
 H        -4.7344118641       -7.0152495303       -6.9697729921
 H        -4.0907312795       -5.9975882075       -8.2356892398
 H        -7.7830670653       -3.1193297011       -6.3317395089
 H        -8.6696988571       -4.2663932046       -7.5498927017
 H        -9.2896005682       -4.5186152472       -1.7745001851
 H        -7.9582899291       -4.9730965817       -2.8162394841
 H       -11.0969397346       -4.1852967321       -6.5457734521
 H       -10.0405613896       -2.8279588669       -6.2190894290
 H       -11.3991976158       -3.0044655069       -5.2141685010
 H       -11.3827170735       -5.0658610699       -3.6096494170
 H       -10.9440886710       -6.2043624417       -4.9844367837
 H       -10.0099711200       -6.0503194107       -3.3493998731
 H        -7.6786568118       -3.8637039851       -0.4116658515
 H        -8.4029947442       -2.4619052105       -0.9104795641
 H        -5.3888191558        0.3278745945       -1.6912425751
 H        -4.4206892088        0.5695449160       -0.1924040029
 H        -6.8735491312       -0.4361777784       -0.1760824619
 H        -5.6737966230       -0.6516587959        1.1408761629
 H        -7.2651928403       -1.6695500965        0.8996137871
 H        -4.3057386471       -3.7674888311       -0.1042695323
 H        -4.9052847424       -2.9912681322        1.4278793669
 H        -5.8530057640       -4.2004579382        0.4631926784
 H        -2.8283384566        1.6634839644       -1.4096088632
 H        -2.3534097662        0.1052913160       -2.0026533028
 H        -0.7581611018       -0.0111467753       -6.4081060795
 H        -0.2943085747        1.5234943423       -5.5746540762
 H        -2.3651329121        2.5138507179       -6.5630248120
 H        -3.6327707464        2.9945319318       -5.5205117606
 H        -3.6437610680        1.3411374560       -6.2519131096
 H        -0.8225133966        2.9361142836       -4.4540762190
 H        -2.1589983306        3.6671655898       -3.7897113872
 H        -1.3730249454        2.4771235241       -2.7676713782
 H         1.5321003069       -0.3046668359       -5.5868861178
 H         0.5162050640       -1.2765734569       -4.5406068500
 H         3.7708002611        0.9113854369       -0.4428522176
 H         2.0992166620        1.0965550066       -0.5148098129
 H         3.6285039634       -0.0333468222       -5.1225254979
 H         3.1106469362       -1.5216438554       -4.2428329196
 H         4.4798608531       -0.4676980137       -3.8487128804
 H         4.1224812819        1.9714593176       -3.2813252315
 H         2.6230823385        2.5628186288       -3.7749915698
 H         2.9509770929        2.2878531572       -2.1189036690
 H         2.0046281641       -0.2645624700        1.4711984833
 H         2.7052031791       -1.5480539420        0.5635989844
 H         4.0597887273        0.4866303202        6.2294427479
 H         5.4716395621       -0.5904654075        5.5478023951
 H         4.1449147033       -2.7308768487        2.1677804748
 H         2.7685511063       -1.9637843205        3.0678805753
 H         4.1434576243       -2.8545089553        3.9550366988
 H         6.5921662888       -0.1796419094        3.1218928911
 H         6.3177973710       -1.5306325876        4.0255241783
 H         6.4925753167       -1.5176084541        2.2542754541
 H         4.8959671356        2.4184511999        5.5589268814
 H         6.3543307577        1.6623423383        4.6650741511
 H         5.6323868610        4.2572804805        8.9467137997
 H         6.8829126168        5.4811522463        8.4474444914
 H         9.1068513331        2.6229650331        7.7257228879
 H         8.0047862100        2.8750185913        9.0986210478
 H         8.5053227769        4.2636549388        8.3335033062
 H         7.8013484235        3.5377081188        4.7528736149
 H         8.7151992409        4.5876996791        5.7776077324
 H         9.0748475644        2.9042666825        5.6437601289
 H         3.9376899059        5.7655622140        7.8381645028
 H         4.5662351055        6.3263849354        9.2763798449
 H         2.0580061928        9.0336133526        9.5008044196
 H         2.9381889661       10.2658133144        8.5275943493
 H         2.8625960124        8.5752268976        7.9310522890
 H         7.6632601452        7.7176941249        8.7401351191
 H         6.4489842758        7.2756075796        9.9476921380
 H         7.1703379437        8.9518935071        9.8403342558
 H         6.3461025943        9.5799897073        6.5931344014
 H         5.2092498449       10.6756101858        7.4672614590
 H         6.8406707527       10.3098450709        8.0251969585
 Na       -3.9270004886       -2.2118909178       -3.8240456223
