155

 C        -4.3909939941       -7.0771646985       -4.3820881761
 C        -3.9274241402       -5.5996978773       -4.7082972525
 C        -4.0149677507       -5.1242342512       -6.1924105455
 C        -5.3076470595       -4.1977840711       -6.3028950621
 C        -6.5409566535       -4.6347079793       -7.3483482418
 C        -2.7028171827       -4.2925700290       -6.2949103193
 C        -4.0885921613       -6.3336564839       -7.1925257184
 O        -3.7274112277       -4.7985067987       -3.8029787441
 O        -5.2099559853       -3.1386194446       -5.7631439036
 C        -7.9145565704       -4.2458022792       -6.9386031060
 C        -8.3711844775       -4.9927980608       -5.5573176451
 C        -9.5970862114       -4.2474617763       -4.7619185294
 C        -8.9779889123       -3.2913516221       -3.7376264358
 C        -8.3309027792       -3.9599327045       -2.4779255065
 O        -7.8818223779       -6.0467758334       -5.1153531366
 O        -9.0075772567       -2.0575510026       -3.8421313700
 C       -10.5367149812       -3.5241503589       -5.7093211898
 C       -10.3687432606       -5.4623670214       -4.0775503743
 C        -7.9854156093       -2.8679187002       -1.4779983416
 C        -6.4944084845       -2.4943443254       -1.7470562355
 C        -5.5956977564       -2.1158579075       -0.4629627714
 C        -4.3952576258       -1.3749791504       -1.0216863903
 C        -4.6153053089        0.0956982338       -1.3414662724
 C        -6.4229246090       -1.1932372367        0.5068430266
 C        -5.0835916549       -3.3990883910        0.2546106718
 O        -6.0593265631       -2.7227654773       -2.8246190551
 O        -3.4107304304       -1.9917919476       -1.5218870117
 C        -3.3749313659        0.6751390180       -2.0358043269
 C        -3.7759045319        1.4033646768       -3.3702563838
 C        -2.5816979901        1.6932325639       -4.4227261070
 C        -1.7392265510        0.3631767647       -4.6634797429
 C        -0.4477233779        0.3832618600       -5.4746422284
 O        -4.8779050380        1.8645515042       -3.5056425335
 O        -2.1923199576       -0.7216878323       -4.2468828334
 C        -3.2268749793        1.9864654021       -5.7773690745
 C        -1.7922627036        2.8548031077       -3.8393849853
 C         0.7098299646       -0.2790733094       -4.8062606668
 C         1.1454163122        0.4548301668       -3.5066119870
 C         2.6285571584        0.4628246744       -3.1077225357
 C         2.7624104461       -0.3302024219       -1.7365297495
 C         3.0248610374        0.4806304065       -0.4172390909
 C         3.6088722839       -0.1352843191       -4.0463097327
 C         3.0683401879        1.9487148586       -3.0191077755
 O         0.3155142402        1.0214343982       -2.8361495803
 O         2.6121448244       -1.4981654060       -1.8362522694
 C         2.9896591289       -0.3369007822        0.8707059151
 C         4.3921887913       -0.1859829756        1.6448591675
 C         4.5569374665       -0.8699369920        3.1030278851
 C         4.1612534424        0.0903663391        4.2355765586
 C         5.0063979597        0.2552275089        5.5671551345
 O         5.2646193226        0.5662166636        1.1949355564
 O         3.0482931079        0.6231994702        4.1336306749
 C         3.7527591027       -2.1830420112        3.4618311324
 C         6.1026664398       -1.0220758376        3.1169317696
 C         5.4696407758        1.7577181059        5.5581320233
 C         6.5327711916        1.9729066934        6.7309374746
 C         7.1695431503        3.3097169656        6.7976328553
 C         6.0149483023        4.3001352428        7.0365853338
 C         5.7206773308        5.0763157563        8.3038650603
 C         8.2474742349        3.3014307413        7.9623368007
 C         7.8523753663        3.6438755010        5.3796418845
 O         6.7135686521        1.0304186801        7.4774897220
 O         5.3110146029        4.5598029040        6.0174270916
 C         4.5978594843        6.0071839276        7.8851396216
 C         5.0781485545        7.3828444071        7.4638410670
 C         5.6001239965        8.4649903210        8.5256484967
 C         4.3035580284        8.8089716265        9.3234466919
 C         3.0830977627        9.2931477680        8.5283523579
 O         5.0946858839        7.6381655200        6.2847006710
 O         4.2476003928        8.7018094068       10.5696630357
 C         6.7055325639        8.0839005358        9.5490406286
 C         6.0233282089        9.7454811309        7.7127882983
 H        -4.3572416002       -7.2313010193       -3.2398631038
 H        -5.4172153329       -7.2447562276       -4.6274625865
 H        -3.8598872656       -7.7105020027       -4.9594249507
 H        -6.1761359573       -3.9634490459       -8.1158487528
 H        -6.3278791038       -5.6540551524       -7.4261302597
 H        -2.8758441182       -3.4471655855       -5.6257823922
 H        -2.5901708825       -3.9261440616       -7.3545065258
 H        -1.8226513973       -4.7719016510       -5.8944632085
 H        -3.2339740518       -6.9406360687       -7.0890961218
 H        -4.9361662870       -6.9629666851       -7.1146677334
 H        -4.0488005024       -5.9831381645       -8.2061830793
 H        -8.0876358870       -3.1595859716       -6.8034094664
 H        -8.5800999402       -4.7409099166       -7.6454487327
 H        -9.0403569911       -4.6440349602       -1.8648276877
 H        -7.5512348454       -4.6198488557       -2.8502926109
 H       -10.9465847181       -4.2047381783       -6.4179281854
 H       -10.2029465760       -2.5389582609       -6.2108204077
 H       -11.4216877933       -3.2541103468       -5.1242143630
 H       -10.9649989527       -5.0731909542       -3.2115928977
 H       -11.0258375878       -5.8138381265       -4.7935626756
 H        -9.6161717776       -6.1945277140       -3.7345513855
 H        -8.1104621692       -3.2124799758       -0.4463013311
 H        -8.7259651333       -2.0753165139       -1.4402902026
 H        -5.4096148060        0.0757122449       -2.0445056619
 H        -4.9604674385        0.6516035247       -0.4791746294
 H        -6.9307473434       -0.3471766639        0.0094391169
 H        -5.6684438796       -0.9967355730        1.2689918883
 H        -7.2652911115       -1.6643477499        0.9037601471
 H        -4.1002612734       -3.6864157168       -0.1112326694
 H        -5.2044035678       -3.2901243068        1.3002095340
 H        -5.7533505322       -4.2582831177        0.0241871652
 H        -2.8455434534        1.5036731574       -1.5561258423
 H        -2.6131212606       -0.0584189034       -2.2367071205
 H        -0.5086169236       -0.1024334310       -6.4578987656
 H        -0.1570653882        1.4521197527       -5.4980015164
 H        -2.7576060697        1.4795837321       -6.5680222199
 H        -3.1611381686        3.0598354463       -6.0521130721
 H        -4.2725697607        1.6167816558       -5.6861005975
 H        -1.0828877248        3.3666964417       -4.5643374675
 H        -2.4979366952        3.6792495858       -3.6084530116
 H        -1.4860661208        2.4867076518       -2.9118013698
 H         1.6055484745       -0.1902862265       -5.4759219112
 H         0.6053931296       -1.3728142621       -4.5292198918
 H         4.0344927891        0.9709494063       -0.4209682825
 H         2.3103604089        1.3251503483       -0.4695221635
 H         3.5696033001        0.2522008232       -5.0769507022
 H         3.4234724774       -1.1617211251       -4.2467628921
 H         4.7068781990        0.0265900579       -3.7563785757
 H         3.2480994265        2.2576939204       -4.0754840821
 H         2.3614421825        2.6615968540       -2.7303290341
 H         4.0351523259        2.1630323305       -2.4420350970
 H         2.1521577440       -0.1499227735        1.5135864008
 H         2.9179750551       -1.4308019744        0.6193056812
 H         4.2513490630        0.0732236972        6.3882475628
 H         5.8730531428       -0.3667984635        5.4796547793
 H         3.8508715106       -2.9622833701        2.7561955803
 H         2.7185534153       -1.8742472399        3.7107018747
 H         4.1831178350       -2.6022965481        4.3041153609
 H         6.7951067280       -0.1279840830        3.2468731131
 H         6.3430140056       -1.7975369150        3.9231044776
 H         6.4528329838       -1.3613179911        2.1329922076
 H         4.5791073700        2.3637985955        5.7344268274
 H         5.8436714453        1.9676855559        4.5798461302
 H         5.3349977915        4.3804877340        9.0001568243
 H         6.6312644337        5.6114413372        8.6633103156
 H         8.9625552540        2.4579929793        7.8270909083
 H         7.6354587936        3.2124716668        8.9103504621
 H         8.7018681797        4.2998290806        8.1029806106
 H         7.0622692061        3.6887015576        4.5214811867
 H         8.3013675694        4.6513018582        5.5092969830
 H         8.7103612408        2.9482709198        5.0841968191
 H         4.0602680357        5.5567802044        6.9978409533
 H         3.8490220755        6.0684151840        8.6285668344
 H         2.3216980917        9.5720506422        9.2173641415
 H         3.3314025711       10.1515866141        7.9156673733
 H         2.7487068485        8.4291096573        7.8796573537
 H         7.6757387548        7.9377232428        9.0951960086
 H         6.4575831900        7.1628219664       10.0626183750
 H         6.9792573580        8.8612937326       10.2317984838
 H         7.0232034064        9.7063497631        7.4005409150
 H         5.3959289139        9.9272987742        6.8258486027
 H         5.9739402007       10.6158060954        8.4195927947
 Na       -3.9729280646       -2.3781185373       -3.7547547331
