155

 C        -1.2416455718      -11.3123297886        3.3973526474
 C        -0.8051706572      -10.1372929219        2.3977516637
 C        -0.4357158792       -8.6729512928        2.9358145628
 C        -1.0865037514       -7.7338482353        1.9639735001
 C        -0.0901531702       -6.8245505863        1.2150178994
 C        -0.9759958890       -8.3669971790        4.4197772755
 C         1.0495155807       -8.7646775698        3.1396412924
 O        -0.6821445732      -10.5396161793        1.2264208626
 O        -2.2703432353       -7.6834680694        1.7565848535
 C        -0.8353650984       -5.6005890422        0.5907972518
 C        -0.0802418035       -5.1550744337       -0.6542393068
 C        -0.5608233565       -3.7780436176       -1.4007982601
 C         0.6641631551       -2.8979731194       -1.3036792265
 C         1.8773071655       -2.9463140727       -2.3874326865
 O         0.6644491168       -5.8148266332       -1.2413118318
 O         0.8614866632       -2.2986635426       -0.2572215952
 C        -0.9214932407       -4.1277920871       -2.9100355599
 C        -1.7033128010       -2.9961112116       -0.7461083888
 C         2.9535013984       -1.9797902799       -1.9995178075
 C         2.4245332550       -0.4855969308       -1.9685081985
 C         3.2891338480        0.5621624228       -1.0426605987
 C         3.6814504940        1.7956461208       -1.8350826633
 C         5.1707879162        2.0061591205       -2.1659505465
 C         2.4058722434        0.7946428151        0.2462434508
 C         4.5797551853       -0.1694386651       -0.5141983396
 O         1.4985618277       -0.0400372125       -2.5815939927
 O         2.9079334329        2.6868863136       -2.1082828388
 C         5.4071739977        2.7215628906       -3.5135085297
 C         5.5989979321        1.6188548308       -4.6221301648
 C         5.8240230519        2.0654797534       -6.1149948310
 C         4.3648625506        2.5336606079       -6.7295465803
 C         3.3221781215        1.4769425797       -7.3242054219
 O         5.3835142445        0.4406847719       -4.4161959913
 O         4.0626710477        3.7319007392       -6.8875056798
 C         6.6502994399        3.3662325783       -6.3302983592
 C         6.4069242577        0.9093324620       -7.0825666118
 C         1.8687769880        1.9823484313       -7.3710115280
 C         1.3697391357        2.2815194670       -5.9312610432
 C         0.7884363437        3.8197883176       -5.7420730715
 C        -0.5982422386        3.6606358796       -5.0027527703
 C        -1.3708066540        5.0156274964       -4.7021643313
 C         1.6643343914        4.5689126831       -4.6903653753
 C         0.6565757992        4.5907155186       -7.0032518671
 O         1.4705490382        1.4331028351       -5.0558194318
 O        -0.9947176839        2.5979735237       -4.5808232042
 C        -2.3212315738        4.8807490288       -3.5115420210
 C        -1.4953722835        4.3745364461       -2.2201204523
 C        -2.1120910739        4.1092507046       -0.8379714501
 C        -2.0025354326        2.4961355195       -0.5863767416
 C        -3.3133995268        1.7826903128       -0.2342510051
 O        -0.3117172477        4.2467571805       -2.3806589975
 O        -0.9631423342        1.8995118060       -0.8052112664
 C        -1.1689530551        4.8874910816        0.2206866493
 C        -3.5667562436        4.6978531839       -0.8462921172
 C        -3.9756741820        2.0794601526        1.1213048054
 C        -2.8824252488        2.3852198062        2.0913433893
 C        -3.1968304240        2.8022138975        3.6086124122
 C        -4.1000059756        1.6071036097        4.2751019723
 C        -4.0785145512        1.6334719538        5.8051711813
 C        -1.8522125431        3.1043414406        4.3174721716
 C        -4.1108029108        4.0683870143        3.6275135652
 O        -1.7546829750        2.4499940274        1.7422184509
 O        -4.6081949837        0.7308436060        3.6387905392
 C        -5.0620467561        0.7031524600        6.5462041170
 C        -4.4549011549        0.1938716014        7.8954569370
 C        -5.4537178028       -0.0420683171        9.1921497458
 C        -5.5547499031        1.4075555911        9.9881487794
 C        -5.2648729748        1.4927851282       11.5346887502
 O        -3.2688215914        0.0516918120        8.0251181438
 O        -5.9487425890        2.3194735462        9.2794362882
 C        -6.9354186879       -0.3518626440        8.6314634123
 C        -5.0115474302       -1.2347391485       10.0543910785
 H        -1.4056683688      -12.1998681652        2.6747213688
 H        -0.3949839557      -11.4469428424        4.0230288935
 H        -2.1293962995      -11.0992132350        3.9995765349
 H         0.6362155170       -6.5200266832        1.9538968491
 H         0.3310411670       -7.3027736907        0.3586717795
 H        -2.0144178761       -8.3335945164        4.3955400135
 H        -0.4926290819       -7.4699837266        4.7961744075
 H        -0.8168564705       -9.1483845897        5.1178526058
 H         1.6023434563       -9.0080264072        2.2055968061
 H         1.6011343668       -7.8520081589        3.5251624063
 H         1.2699911951       -9.7225251295        3.6580186671
 H        -1.7523022478       -5.9502023298        0.1888596058
 H        -1.0346014251       -4.8364698699        1.3834137843
 H         2.1519163199       -3.9707293320       -2.2359784955
 H         1.5142489691       -2.7196393202       -3.3878046172
 H        -1.4872932344       -3.2432932034       -3.2776217809
 H        -1.5888537030       -4.9599500166       -2.9572659983
 H        -0.0727550829       -4.2483078224       -3.4688592223
 H        -2.7305694242       -3.1417018589       -1.0794226818
 H        -1.7632820133       -3.3364475051        0.3064302360
 H        -1.3715902786       -1.9908226180       -0.6819017802
 H         3.7203158489       -1.9488773170       -2.6781504206
 H         3.2904637043       -2.1980369375       -0.9940939908
 H         5.6283466535        2.4342650050       -1.2427956820
 H         5.7830446765        1.0831126730       -2.3127221789
 H         1.6229410810        1.5282684067       -0.0010201123
 H         3.0140953189        1.0093777024        1.0316995902
 H         1.7701313393       -0.0460001337        0.5611911143
 H         4.2995712019       -0.9373614515        0.1939462400
 H         5.1326532157       -0.6492899642       -1.3549628397
 H         5.1517157389        0.6232972782       -0.0321450331
 H         4.5015567415        3.2956132076       -3.7855055446
 H         6.1863571543        3.4531870352       -3.5928256834
 H         3.5426528560        1.2218624983       -8.2996380302
 H         3.2215422502        0.5542667892       -6.7705330058
 H         6.2643127496        4.1695247523       -5.7280673206
 H         6.4864755559        3.6348093128       -7.3792226084
 H         7.6496658233        3.2014375487       -6.0730145759
 H         7.3792516779        1.2180809794       -7.4764625730
 H         6.6405163482        0.0535396841       -6.4310280895
 H         5.7366585527        0.7136775108       -7.8884216449
 H         1.4811549735        1.0864148638       -7.8995477205
 H         1.8650877935        2.8243250773       -8.0584252782
 H        -0.5901529266        5.7521397995       -4.4127912225
 H        -1.9517859606        5.2960625367       -5.6122383114
 H         1.5665968558        3.9910075816       -3.7440453292
 H         1.3517488770        5.7156518550       -4.7176992335
 H         2.7296233687        4.5970900162       -4.9392580941
 H         0.2247295653        5.6478886530       -6.8633073263
 H         1.6138990342        4.6652871335       -7.4654361470
 H         0.1098354409        3.9838708865       -7.6986641732
 H        -2.7233551455        5.8138289859       -3.3277159270
 H        -3.1959694226        4.2352335449       -3.7235865301
 H        -4.0318968656        2.1492078821       -1.0338954838
 H        -3.1594826412        0.7007613537       -0.4317256512
 H        -0.1554390198        4.6225410242       -0.1380604479
 H        -1.3142783880        4.5194166224        1.2265493615
 H        -1.3250323002        5.9483769600        0.2110783544
 H        -4.0305191806        4.6353221342        0.1148672890
 H        -3.4305102234        5.8054594443       -0.9180726672
 H        -4.1325223789        4.1645138366       -1.6937405705
 H        -4.3645870859        1.1484260914        1.4979577787
 H        -4.7199654137        2.8241157938        1.1314773136
 H        -3.0921691971        1.4236483775        6.2237869307
 H        -4.2523499429        2.6179926738        6.2211273559
 H        -1.5275299034        2.1342907018        4.6396828632
 H        -1.9607399083        3.5146318522        5.2807797168
 H        -1.0381448851        3.6112879358        3.8082391329
 H        -4.5657184737        4.2295737993        4.6337512843
 H        -3.6745834823        4.9755242024        3.4076473295
 H        -5.0273997246        3.9533994201        3.0966480918
 H        -6.0201812785        1.2206211176        6.6247459111
 H        -5.2604317464       -0.2477733407        6.0592708279
 H        -4.2974778292        1.8564707450       11.6980712243
 H        -6.0581838494        2.1026919381       11.9819390152
 H        -5.3793081357        0.5297124922       11.9563710517
 H        -7.3309703946       -1.0640270168        9.3054654303
 H        -6.8441773772       -0.7900641776        7.6715869690
 H        -7.4885172525        0.5268270971        8.4974168695
 H        -5.6052431114       -1.2449158278       10.9451786883
 H        -4.9147015703       -2.2148114685        9.6218553979
 H        -4.0425100891       -1.1320420040       10.4274954768
 Na        0.6588822668        2.1629530718       -2.6870724757
