155

 C        -3.0263605393       -7.2454191255       -3.9304205523
 C        -2.6306433259       -5.7685625107       -4.3106448098
 C        -2.6621855839       -5.4408125900       -5.8704510954
 C        -3.8541286541       -4.3415422529       -5.9845540130
 C        -4.9691348779       -4.6049808300       -6.9972947126
 C        -1.3587628557       -4.6453248935       -6.1084606653
 C        -2.8617239893       -6.6346072444       -6.8163560347
 O        -2.5307883524       -4.8491880535       -3.4673717527
 O        -3.7833047368       -3.2436976679       -5.4564450864
 C        -6.2769985324       -3.7385427308       -6.8173953974
 C        -7.1376326438       -4.3975566195       -5.7299463597
 C        -8.4498445736       -3.4651711293       -5.1944095348
 C        -8.0013537979       -3.0403923992       -3.7966367680
 C        -7.8916578124       -4.0635451365       -2.7136641629
 O        -6.9228263693       -5.5031721590       -5.2890338792
 O        -7.8313555737       -1.8691907516       -3.6274938887
 C        -8.8366570716       -2.4293652631       -6.2885378468
 C        -9.6891027765       -4.3026006849       -5.0122680678
 C        -7.3308745242       -3.4338366601       -1.4485648805
 C        -5.8049314156       -2.8265655089       -1.7466079158
 C        -5.2223917564       -1.9599639853       -0.5457976260
 C        -4.2508249360       -1.0384609922       -1.3457874170
 C        -4.8399830411        0.3320740392       -1.8700389775
 C        -6.2892854663       -1.0781387181        0.1216226161
 C        -4.4874326638       -2.9328625200        0.4050649524
 O        -5.3562227016       -3.1186251834       -2.8207744827
 O        -3.0468470805       -1.1818027096       -1.4397121765
 C        -3.9565893188        1.0582296529       -2.8459701316
 C        -3.7093641647        0.2478167956       -4.1533010763
 C        -2.5076164365        0.6365483318       -5.1495640912
 C        -1.2056476851        0.0792061800       -4.5207088020
 C         0.2790985553        0.7041525641       -4.6690122284
 O        -4.2354965055       -0.8176575359       -4.3707994822
 O        -1.1614630945       -0.9932806690       -3.9216866209
 C        -2.6595393767        0.0434768943       -6.5672856894
 C        -2.4255761838        2.2051336684       -5.1408517771
 C         1.0564256985        0.8937887292       -3.3420149548
 C         0.2561935509        1.6400311167       -2.2522531713
 C         0.8503786612        1.9340844425       -0.8122344528
 C         1.7573044176        0.6861282483       -0.2706817887
 C         2.9776418011        0.8267346930        0.7592441584
 C         1.6931563560        3.1939748606       -1.0210752083
 C        -0.1795531077        2.2849591107        0.2588403024
 O        -0.8003237170        2.1469376594       -2.5016266459
 O         1.4168578411       -0.4448923851       -0.6314025866
 C         3.8359160658       -0.4495151616        0.5187425644
 C         5.0114572600       -0.6123757455        1.6084940416
 C         4.8214163313       -1.4551145919        2.9422592890
 C         3.7777247301       -0.7855112911        3.9511318866
 C         4.3066464716        0.1355721479        5.0773475973
 O         6.1513092386       -0.2286143736        1.3410538244
 O         2.6089634866       -0.8864802854        3.7332478107
 C         4.1951590545       -2.8746018429        2.5489050768
 C         6.2097542394       -1.5919775313        3.6180490047
 C         4.5718991514        1.4695109689        4.2764988109
 C         5.2655404375        2.6424502182        5.0106662599
 C         4.9295432185        4.1071922233        4.7237592560
 C         4.2839119939        4.8366386782        5.9214854099
 C         4.0009028631        4.1196337745        7.3046227767
 C         6.2546960095        4.9349505077        4.3988003307
 C         3.8299712127        4.3681413413        3.5765707926
 O         6.0761683935        2.4109510712        5.8495961183
 O         3.9254052329        6.0268019516        5.8636762546
 C         3.4035705997        5.1482758025        8.2791350140
 C         4.5767492407        6.0030847392        8.8171596402
 C         4.2633748923        7.4330154196        9.3950620841
 C         4.4825258666        8.6517826019        8.3672115769
 C         5.5862512145        8.3590094742        7.2191664144
 O         5.6718657940        5.4653491217        8.8805589998
 O         4.0046821091        9.6775398873        8.6163978406
 C         2.8281821861        7.5324101940       10.0298097577
 C         5.1518400742        7.7611523911       10.5853990082
 H        -3.4070564974       -7.3011296930       -2.9419043391
 H        -3.8051642240       -7.7043953808       -4.6768819319
 H        -2.1178517547       -7.8870628143       -4.1088561557
 H        -4.5883661041       -4.3695378949       -7.9892035949
 H        -5.3134569107       -5.6193966392       -6.9985010122
 H        -1.1537916393       -4.0003025256       -5.2701411839
 H        -1.5289329032       -3.9384044770       -6.9354831069
 H        -0.4532537569       -5.1979606357       -6.2629856587
 H        -2.1330957710       -7.3393383626       -6.7048263978
 H        -3.7775729463       -7.0885364748       -6.6842813884
 H        -2.7930785411       -6.2963452987       -7.8841263212
 H        -5.9683013628       -2.6748656587       -6.5613195385
 H        -6.7538877940       -3.7505766883       -7.7978398138
 H        -8.8778157092       -4.5354643515       -2.4410212653
 H        -7.3971151182       -4.9789374515       -3.0532208574
 H        -8.9195884967       -3.0646839554       -7.2407998029
 H        -8.0165329692       -1.8012895485       -6.4814334396
 H        -9.8252912653       -1.9528003168       -6.0393689900
 H       -10.5413515626       -3.8664146870       -4.5933437620
 H        -9.9848246569       -4.7682082322       -5.9916739145
 H        -9.5424342095       -5.0905386210       -4.3169068208
 H        -7.2895745017       -4.1813252880       -0.6386272329
 H        -8.0238439244       -2.6923564885       -0.9958161779
 H        -5.8461645308        0.1293092570       -2.2367564800
 H        -4.9701770725        0.9943842732       -1.0525949383
 H        -6.6874418122       -0.4002502476       -0.5515758533
 H        -5.7084145925       -0.6972808543        0.9702667190
 H        -7.1153880966       -1.6770368095        0.6537071792
 H        -3.5502967866       -3.2342805767       -0.0963847043
 H        -4.3811886954       -2.3483825483        1.3473941631
 H        -5.0712217835       -3.7933436973        0.6198878646
 H        -4.3904502636        2.0339920843       -2.9871824587
 H        -3.0007825696        1.3617674004       -2.3972207903
 H         0.7652271681       -0.1029745635       -5.3020280147
 H         0.2857574572        1.6433682692       -5.2407040562
 H        -3.7091854719       -0.0896701489       -6.8880533679
 H        -2.1122986644       -0.8984671694       -6.5941087271
 H        -2.1771979613        0.6386564178       -7.2727102460
 H        -1.6416689265        2.5908032872       -5.7754159119
 H        -3.3219760124        2.5504815554       -5.5420130753
 H        -2.2848728490        2.6167544414       -4.0983654739
 H         1.9083219059        1.5715241303       -3.5968928171
 H         1.5968436514       -0.0240622699       -2.9996659846
 H         3.4703070403        1.8371771482        0.5846365270
 H         2.4604948072        0.7114635531        1.7330158632
 H         1.0105110755        3.7796440725       -1.6293518346
 H         2.5454817879        3.0813783935       -1.5325682453
 H         1.8658708590        3.7013637817       -0.0381853094
 H         0.1104393756        3.0610447994        0.9966012969
 H        -1.1181351254        2.5824827322       -0.2233505773
 H        -0.3840427227        1.3744048324        0.7504512682
 H         3.1366965581       -1.2572170750        0.6371470993
 H         4.4055516041       -0.4552604906       -0.4179587793
 H         3.5650107336        0.2518077417        5.8388168152
 H         5.1702926109       -0.1463085611        5.6149810197
 H         4.6706084346       -3.3782281220        1.6522346892
 H         3.1665291500       -3.0314055741        2.4096413798
 H         4.5358541695       -3.6196680801        3.3667239851
 H         6.7851091325       -0.6855800039        3.8052758126
 H         6.0590748591       -2.0352612301        4.5882048653
 H         6.7176432952       -2.1776187453        2.8125409675
 H         3.6709796584        1.8188914814        3.7653808030
 H         5.2447522389        1.1265403963        3.4536829507
 H         3.3336040242        3.2973377422        7.1051485372
 H         4.9500555142        3.6769797664        7.7210517624
 H         7.0213692058        4.1871478565        4.1472960085
 H         6.5435529235        5.3778551989        5.3870089868
 H         6.0922703693        5.7490528360        3.6879403898
 H         2.8512091551        3.9771758730        3.8257296407
 H         3.5603570689        5.3892912207        3.4916935285
 H         4.1444875008        4.0333342994        2.5934308076
 H         2.6327316909        5.8104427823        7.7284919798
 H         2.8777601187        4.7415230221        9.1123110550
 H         6.5364286908        7.9329401239        7.7096201251
 H         5.2693238760        7.6246729116        6.5041924510
 H         5.7255931739        9.3326339365        6.7965291892
 H         2.9073875368        6.8146726836       10.8173600308
 H         1.9871477630        7.2282585274        9.2790680740
 H         2.6111368583        8.5937840332       10.2427789283
 H         4.9828164366        6.9725523831       11.3588541345
 H         6.1952025546        7.8479263821       10.3589842154
 H         4.8017460149        8.7186784776       11.0221533616
 Na       -2.9225357829       -2.4278001362       -3.3613745075
