155

 C        -2.0746354367       -7.1766981870       -3.7218407174
 C        -2.3507418961       -5.7457616551       -4.1518764685
 C        -2.4962572988       -5.4155335722       -5.6771752976
 C        -3.5847648259       -4.4035543379       -6.0653780929
 C        -4.8455026794       -4.8897401374       -6.6855940072
 C        -1.1481400918       -4.6990716959       -6.0406266377
 C        -2.6776574605       -6.6509865597       -6.6135473268
 O        -2.3442490656       -4.8000614187       -3.3486188532
 O        -3.4654896658       -3.2522462861       -5.6692763760
 C        -6.0145487879       -3.8224201022       -6.6299654680
 C        -7.1601222698       -4.4214301678       -5.7826290929
 C        -8.4467596781       -3.4381064019       -5.1833899784
 C        -8.0706881076       -3.0704181088       -3.7233132307
 C        -7.8311430098       -4.2166103371       -2.6699139935
 O        -7.1749648502       -5.5530571026       -5.4417401208
 O        -7.8920394258       -1.9069362464       -3.3959674329
 C        -8.4625916979       -2.1458529211       -6.0585576040
 C        -9.7315479518       -4.2997610346       -5.3892398384
 C        -7.1543129157       -3.6519730920       -1.4286571588
 C        -5.7664103257       -3.0482897324       -1.6619886245
 C        -5.3114572196       -1.9398318682       -0.7615430523
 C        -4.4547139159       -0.8489780046       -1.4738980359
 C        -5.1571437286        0.4154829586       -2.2185883065
 C        -6.3413142575       -1.1851804491        0.0998061892
 C        -4.4074223310       -2.7352966504        0.3258351027
 O        -5.1208798086       -3.4814162605       -2.5357930736
 O        -3.2614474213       -0.9623263333       -1.6083706612
 C        -4.0630727695        1.1832305967       -2.9625546019
 C        -3.4788643667        0.4118095927       -4.2095624491
 C        -2.2822732888        1.0318931854       -5.0738455630
 C        -1.0521954170        0.2874209665       -4.4497222264
 C         0.3031626510        0.9988804295       -4.5109584059
 O        -4.0189809797       -0.6258967875       -4.4913058748
 O        -1.1065506727       -0.8523733786       -4.0321079481
 C        -2.1907536945        0.3968709494       -6.4888957673
 C        -2.0686484677        2.5360791636       -5.0938936742
 C         1.0757156111        0.9808299495       -3.2254112809
 C         0.1679001466        1.4893525973       -2.0680414255
 C         0.7804125319        1.6643669747       -0.6524033807
 C         1.5331500942        0.4282462511       -0.2014979835
 C         2.5981043099        0.4714335516        0.8982750597
 C         1.5677654134        2.9055483255       -0.8243144011
 C        -0.3453674363        2.0239580530        0.4228180703
 O        -0.9985712944        1.6468572922       -2.2698067794
 O         1.3938823230       -0.6336923187       -0.7813228878
 C         3.8211677587       -0.4168519640        0.4585008069
 C         5.0428967066       -0.5082926873        1.5735717727
 C         4.7962434499       -1.4270555595        2.7843096592
 C         3.7555254798       -0.7359448366        3.7726950481
 C         4.3049371272        0.2586094780        4.8918968008
 O         6.0823488950        0.0463037806        1.2202461265
 O         2.5652810655       -0.8027645506        3.6260112160
 C         4.1456593716       -2.7341023510        2.3133331299
 C         6.1408233910       -1.6919767686        3.4647830861
 C         4.3625348457        1.5863545688        4.2131959107
 C         5.0381525154        2.7695990209        4.8969508841
 C         4.6402297685        4.2933210433        4.6944296963
 C         4.0550979774        4.9908062985        5.9589862664
 C         3.8358722546        4.1568104197        7.2480792680
 C         5.9443442163        4.9873507105        4.3070566786
 C         3.5298444865        4.4973156943        3.6598325123
 O         5.9279418038        2.5893569541        5.6933108583
 O         3.7033140251        6.1844714906        5.8769193557
 C         3.1765287695        5.0925973020        8.2908397650
 C         4.3236253535        5.8508036685        9.0879507128
 C         4.1061058856        7.3518689664        9.5181888606
 C         4.8070410974        8.3509038898        8.4033531021
 C         6.0254962035        7.9659900046        7.5913144459
 O         5.4391088781        5.3719502850        9.1147413093
 O         4.1194303989        9.3174736800        8.0835814581
 C         2.4962914083        7.7816626476        9.5366975837
 C         4.7627377491        7.6389562737       10.9206481076
 H        -1.6363863546       -7.1467157440       -2.7478774828
 H        -3.0244494291       -7.8294845829       -3.7460826343
 H        -1.2046396163       -7.6491609740       -4.3474059214
 H        -4.6935773096       -5.2863646453       -7.7005696181
 H        -5.2113554990       -5.7628540160       -6.0823121328
 H        -1.2045915892       -3.6645228979       -5.8061171347
 H        -0.8178307894       -4.8591823073       -7.0578433964
 H        -0.3401843188       -5.0041710125       -5.3464845053
 H        -1.8223898902       -7.2921652956       -6.4926037614
 H        -3.5940312360       -7.2722632752       -6.4932135756
 H        -2.7466102732       -6.2854628882       -7.6748782942
 H        -5.6160020866       -2.9355690349       -6.0879707748
 H        -6.3626043354       -3.5065957021       -7.5604329627
 H        -8.9254104713       -4.4521900758       -2.4232178647
 H        -7.4818526169       -5.1534721874       -3.1058316229
 H        -8.6740470632       -2.4652137384       -7.0808907615
 H        -7.5485698894       -1.6960933491       -5.8158709526
 H        -9.3075779689       -1.5083779770       -5.8686536199
 H       -10.6430468989       -3.9165341748       -4.9464806717
 H        -9.9196998392       -4.4094016151       -6.5231715712
 H        -9.6239672156       -5.3276600135       -5.0024063067
 H        -7.2146402631       -4.2844590928       -0.5617766027
 H        -7.7951216301       -2.8419513039       -1.1448650727
 H        -5.8881084849        0.0879290500       -2.9685609275
 H        -5.6844536597        1.0353649144       -1.5160104524
 H        -6.9028333421       -0.5691248765       -0.5207985917
 H        -5.8248534973       -0.7828364921        0.8950822794
 H        -6.8799563690       -1.8801687163        0.7512834518
 H        -3.6362954380       -3.0769048167       -0.3502672074
 H        -4.0538983257       -2.1483977160        1.2437322601
 H        -4.9713558100       -3.5368398623        0.7740804993
 H        -4.4220541876        2.1923694670       -3.2178698795
 H        -3.2030222396        1.3727042234       -2.2995933113
 H         0.9332956669        0.5821491539       -5.3388657048
 H         0.2126363715        2.0045987148       -4.9146116461
 H        -2.4771900342        1.0600659320       -7.2928228013
 H        -2.6652840159       -0.6288966206       -6.4807550422
 H        -1.2202538124        0.2371217065       -6.8072178180
 H        -1.2803183758        2.7894536161       -5.7568874220
 H        -2.9676918524        3.0237252454       -5.3279255844
 H        -1.8230898010        2.8687769817       -4.0675030583
 H         2.0983503169        1.3960423611       -3.3735261518
 H         1.3392568156       -0.0629832402       -2.8937345278
 H         2.9757400825        1.4727232640        1.1920764330
 H         2.1283978053        0.0328876340        1.7842317223
 H         0.9406218393        3.5663174205       -1.3707617878
 H         2.4244362315        2.8172603286       -1.4294660393
 H         1.9704981200        3.1490306499        0.2166842136
 H        -0.1120395195        1.5165618010        1.3479994737
 H        -0.3860985829        3.0000360149        0.7013449423
 H        -1.3437900622        1.6125129057        0.1318948291
 H         3.4228256606       -1.3290396299        0.1663561286
 H         4.4017895866        0.0039868400       -0.3239425025
 H         3.6918069510        0.2503265380        5.7860376887
 H         5.3245117472       -0.0359476970        5.1910097602
 H         4.8405307560       -3.4163953475        1.8327618237
 H         3.2171496227       -2.5905849822        1.8336505735
 H         3.6747382956       -3.3665614294        3.0863192744
 H         6.6783564120       -0.7835532202        3.4698752278
 H         6.0451137872       -1.9609764929        4.4738444975
 H         6.6661145554       -2.4973786683        2.8905714794
 H         3.4301134213        1.9391826240        3.8225145099
 H         4.7994539000        1.3519963241        3.2180927396
 H         3.2474384892        3.3353057459        7.0291278881
 H         4.8087417702        3.7089197340        7.5481717512
 H         6.0757370287        4.8250090758        3.2242872221
 H         6.8446200688        4.8330630047        4.9468272795
 H         5.7141729479        5.9763197249        4.4912026551
 H         2.6096746613        4.0304643122        3.8798690470
 H         3.3504075597        5.5319574841        3.4762751211
 H         3.8063336771        4.0693784265        2.7504903110
 H         2.4192573247        5.8132162451        7.7876334975
 H         2.6762199033        4.4016857950        8.9781172376
 H         6.6457029845        7.2406592003        8.1548391806
 H         5.5660008307        7.3357988750        6.8389493122
 H         6.5170738851        8.7915500692        7.1753510072
 H         1.9954405040        7.2568090413       10.3309152933
 H         2.1637792656        7.6158147861        8.4397435400
 H         2.4891749079        8.8271609127        9.9073519489
 H         4.0535492361        7.2947430104       11.7201205515
 H         5.7480364481        7.2487318318       11.1009529429
 H         4.8570684274        8.7069209644       11.0361393271
 Na       -2.9440872804       -2.4234068394       -3.5874265039
