155

 C        -0.0916988129       -5.5088528320       -3.0831182961
 C        -1.0554286447       -4.7646118498       -4.0141431583
 C        -1.5087881399       -5.3310894800       -5.3643270079
 C        -2.6737654231       -4.5231814701       -5.9333088759
 C        -4.1135700143       -5.0315204702       -5.6539025763
 C        -0.3745003942       -5.2069651981       -6.5207922648
 C        -1.8778740103       -6.7936435494       -5.2129626904
 O        -1.4982366295       -3.7167318867       -3.6229927484
 O        -2.4973054237       -3.4363228115       -6.4598669279
 C        -5.1621497123       -3.8419796017       -5.8604179997
 C        -6.5957958517       -4.4719077551       -5.9037808396
 C        -7.8656650936       -3.7549360963       -5.3686955302
 C        -7.6029802584       -3.3586150553       -3.7926635257
 C        -7.0682488206       -4.6020917831       -2.9265196261
 O        -6.7281640644       -5.5229177610       -6.5115373624
 O        -7.7847007616       -2.2168423824       -3.3484400477
 C        -8.1268044248       -2.3960303681       -6.0874585393
 C        -9.0626683798       -4.7681245354       -5.5388349027
 C        -6.5773987597       -4.0144739005       -1.6330690232
 C        -5.5646853652       -2.9478802525       -1.9416339784
 C        -5.2351312467       -1.7241416570       -1.0311547241
 C        -4.5613138788       -0.5725931138       -1.7937699660
 C        -5.3202520748        0.6159412398       -2.4695539486
 C        -6.5605504600       -1.3471191867       -0.4230274807
 C        -4.2926030813       -2.1063746965        0.1657192648
 O        -4.8097246752       -3.1244352841       -2.9601394254
 O        -3.3851301818       -0.6406570461       -1.9954762920
 C        -4.2776239307        1.4322342790       -3.2054239594
 C        -3.8001564344        0.7187105825       -4.4747138251
 C        -2.6269141863        1.3754507366       -5.3584671521
 C        -1.3254469994        0.5381955992       -4.7529661952
 C        -0.0611366400        1.2603221454       -4.4009788397
 O        -4.3244540743       -0.3165950103       -4.8763662647
 O        -1.3643292673       -0.7150195706       -4.6695900146
 C        -2.9206200178        1.0339509153       -6.9240216726
 C        -2.3457882564        2.8795495776       -5.3171169370
 C         0.5131176149        0.8218582773       -3.0410631606
 C        -0.2116980909        1.2039990648       -1.7835179710
 C         0.5663712310        1.0624335572       -0.4879712307
 C         1.6270440852       -0.0720115003       -0.4822583783
 C         2.8740015571        0.0803634947        0.2836557356
 C         1.2694479406        2.4353188342       -0.2146043901
 C        -0.4506848818        0.7260935889        0.6658877971
 O        -1.3683412172        1.6429362497       -1.7502596526
 O         1.4270151416       -1.0953700896       -1.1554582967
 C         3.4533122758       -1.2260268528        0.9203140863
 C         4.8000492131       -0.9466720049        1.4674409874
 C         5.1286397106       -1.5847200697        2.8548931030
 C         4.2005171190       -0.7481777637        3.6785365171
 C         4.6197773969        0.6536710777        4.1596171351
 O         5.4808528796       -0.0893998899        1.0113476368
 O         3.0797824781       -1.1290719520        3.9690357999
 C         4.5636021068       -3.0511936498        2.8851684447
 C         6.6382943946       -1.5082231007        3.1195776579
 C         3.6013759790        1.5268157714        4.9450081562
 C         4.2053723611        2.8351479113        5.3371696658
 C         3.8538175381        4.2095516188        4.6569363032
 C         2.8769412026        5.0673270118        5.6874925753
 C         2.9893893364        4.7266394766        7.1746668910
 C         5.0392331733        5.0909167298        4.4458259917
 C         3.0829621502        3.9812057805        3.2625195688
 O         5.1819805486        2.8100679335        6.0915463289
 O         2.1940693050        5.9412087406        5.2725579569
 C         2.4148111293        5.8428700637        8.0745313649
 C         3.3212410998        6.0951585835        9.3655468844
 C         3.5724596968        7.5440563182        9.7032062332
 C         5.0300441212        7.8670760141        9.1636171983
 C         6.2184830587        7.0903153200        9.7063990678
 O         3.9401772845        5.2291445090        9.9141175054
 O         5.1061555461        8.6396497912        8.2106859614
 C         2.5553539491        8.5986493039        9.0007678697
 C         3.4683191252        7.8160598733       11.1760282610
 H         0.1316906201       -4.8401838317       -2.2672579189
 H        -0.6384642671       -6.3700240922       -2.6585271659
 H         0.8243036381       -5.9999399864       -3.5777333431
 H        -4.5699643857       -5.9150806453       -6.2306963543
 H        -4.1917211660       -5.3116046741       -4.5994225288
 H        -0.0045892843       -4.2307674741       -6.4762033993
 H        -0.7902420346       -5.5372726789       -7.4452781045
 H         0.5007318385       -5.8727184004       -6.3583099973
 H        -0.9516168883       -7.4100029437       -5.3274112745
 H        -2.3246025182       -6.9554904487       -4.2130526037
 H        -2.4924903275       -7.1590369606       -5.9634791249
 H        -5.0547444778       -3.0246007703       -5.1291436499
 H        -4.9753723850       -3.4891868564       -6.8072554441
 H        -7.7601874419       -5.3839679249       -2.8397733567
 H        -6.1872519414       -5.0687172454       -3.4277337864
 H        -8.9821718094       -2.4396562114       -6.7751400522
 H        -7.2429736156       -1.8589039957       -6.5081795125
 H        -8.5334392999       -1.7102077427       -5.3335114595
 H        -9.7940434690       -4.5372657943       -4.8211295616
 H        -9.3809021217       -4.5061160951       -6.5473082201
 H        -8.7508981477       -5.8046171964       -5.5253608345
 H        -6.1342018192       -4.7021039596       -0.9874404969
 H        -7.3885845589       -3.6452476255       -1.0641753963
 H        -6.1088332602        0.1836064624       -3.1880843115
 H        -5.8898588517        1.3086689443       -1.8452338846
 H        -7.4945599847       -1.5584859664       -1.0478776880
 H        -6.5231288720       -0.2854821639       -0.2482223815
 H        -6.7449254540       -1.6551329126        0.5849238201
 H        -4.0435397269       -1.3813849174        0.8409443608
 H        -4.6959006758       -3.0161443300        0.6224738544
 H        -3.3491686963       -2.4657865452       -0.0978022725
 H        -4.6408605495        2.4582636330       -3.3239926749
 H        -3.3353019304        1.5422055962       -2.6216411682
 H         0.7751163108        1.1514048461       -5.0721813019
 H        -0.2324406215        2.3062074612       -4.3296291048
 H        -3.6447470804        1.7098579580       -7.3663047162
 H        -3.1973536006       -0.0254034963       -7.0927219473
 H        -2.0865856154        1.2125291264       -7.5940125682
 H        -1.4823735274        3.0332279451       -5.9669921947
 H        -3.1866045980        3.3717977420       -5.7611334406
 H        -2.2710095885        3.2498277616       -4.2839835588
 H         1.5365237133        1.0313029749       -2.8543718928
 H         0.4175500819       -0.2456315796       -3.0885042049
 H         3.7359519238        0.5561017135       -0.3122689999
 H         2.6449085754        0.6625304465        1.1738347150
 H         0.6315628005        3.2867935046       -0.4620810710
 H         2.2794627901        2.5105063058       -0.8103233818
 H         1.4298485752        2.6294639525        0.8817480805
 H         0.1000407329        0.6673762170        1.6150420305
 H        -1.2522083246        1.4105701526        0.7819498977
 H        -0.7872487546       -0.3362803595        0.4211352076
 H         2.8298729938       -1.5205675536        1.7785100333
 H         3.5309729748       -1.9781974531        0.1148383958
 H         5.4414552442        0.6263390860        4.9086754490
 H         5.0297000666        1.1716468460        3.2260282115
 H         4.7558036695       -3.5399901969        1.9759753641
 H         3.6379889796       -3.0276888034        3.4398447819
 H         5.1622821826       -3.6431738075        3.5723242262
 H         7.0728572520       -0.5815985282        2.6682467717
 H         7.0265751904       -1.3091241867        4.1224127380
 H         7.1040085829       -2.4374201495        2.6153770225
 H         3.4339184380        0.9697830114        5.8788380346
 H         2.5914559369        1.6985729349        4.5069905890
 H         2.1685141221        4.0065805380        7.3076299267
 H         3.9021077744        4.3918257799        7.5015749773
 H         5.8807849552        4.6301741247        3.8902550645
 H         5.4749178749        5.5612655218        5.3983567394
 H         4.7105656073        5.9222622854        3.9011393857
 H         2.3235403760        3.2838515542        3.5400402886
 H         2.7942248837        4.8865161176        2.6350748229
 H         3.7927020514        3.4799587586        2.6062740502
 H         2.2718034911        6.7805590472        7.5007240695
 H         1.3775347414        5.6191732043        8.2551318830
 H         5.8668506626        6.4453906046       10.5305619434
 H         6.7248797674        6.5226822859        8.8478393065
 H         7.0273060758        7.7708085557       10.0202139929
 H         1.5751926739        8.2388461877        9.0634804963
 H         2.9147303935        8.6143683853        7.9898552664
 H         2.5739124454        9.4840135470        9.6046975770
 H         2.5477064491        7.4349969886       11.6167232728
 H         4.2673471331        7.5293740289       11.8309303645
 H         3.3694618848        8.9012404188       11.3327167173
 Na       -2.8714832395       -2.1381204775       -3.8353057385
