155

 C         0.1479152033       -5.5030280946       -3.3128390574
 C        -0.9363633379       -4.7053253768       -4.0822905937
 C        -1.5197644233       -5.2906562167       -5.3784506289
 C        -2.7581548613       -4.4694959009       -5.8686060855
 C        -4.0831302409       -4.9066299863       -5.4316955512
 C        -0.4103055822       -5.2278863525       -6.4490084361
 C        -1.8336827707       -6.8147991969       -5.1188054825
 O        -1.3420435149       -3.6677546623       -3.5587581683
 O        -2.5202764543       -3.3625816183       -6.3169264406
 C        -5.1710427308       -3.8989772270       -5.8153738477
 C        -6.5193044385       -4.6040376470       -6.0966231799
 C        -7.7467616858       -3.8318576167       -5.5148563680
 C        -7.4974250634       -3.5683086699       -3.8711218438
 C        -7.1396291198       -4.7650869542       -2.8845566204
 O        -6.6394193505       -5.6748744034       -6.6124921875
 O        -7.7412713732       -2.4763515823       -3.4455949061
 C        -7.8354955904       -2.5151256638       -6.2432235336
 C        -9.1016855861       -4.6872544632       -5.5765968933
 C        -6.4499314369       -4.1833682345       -1.6062333987
 C        -5.5332547832       -2.8907542513       -1.9857360871
 C        -5.3498783070       -1.6893640724       -0.9527728724
 C        -4.4979147616       -0.6359234022       -1.7462299921
 C        -5.2112611179        0.5618021248       -2.3867568072
 C        -6.5748884431       -1.2054650489       -0.3153972547
 C        -4.4079411814       -2.3029989511        0.1441031561
 O        -4.7806257706       -2.9485797210       -2.8560790962
 O        -3.2777620336       -0.8019672105       -1.8176482136
 C        -4.2571361490        1.5527736944       -3.2258856101
 C        -3.7362935890        0.8598431147       -4.6095469001
 C        -2.6058296682        1.3395311590       -5.4574566844
 C        -1.3042540224        0.6300458256       -4.8190941069
 C        -0.0232898980        1.4950899848       -4.4697710079
 O        -4.3491982293       -0.1452197077       -4.9801137251
 O        -1.2800415035       -0.5505008559       -4.5994908590
 C        -2.8022419634        0.7613952028       -6.8703639025
 C        -2.5006834575        2.8868115002       -5.4292185452
 C         0.7437194530        1.0398933761       -3.1375339563
 C        -0.2366576251        1.1264681336       -1.8484937469
 C         0.5321227707        1.1183430049       -0.4702860329
 C         1.6336570250        0.0330063981       -0.6290072141
 C         3.0032988389        0.2189290695        0.0346475080
 C         0.9457941748        2.6076860007       -0.1679134342
 C        -0.2855718036        0.6044248731        0.7843944849
 O        -1.3729620505        1.3893221100       -1.9958625842
 O         1.3658536269       -0.9994856089       -1.1496798655
 C         3.4276321155       -1.1015330422        0.8542176661
 C         4.7924956969       -1.0294206062        1.4838926441
 C         5.0072291919       -1.5905171008        2.9052544077
 C         4.0691012060       -0.6931189019        3.8596360843
 C         4.4338943665        0.7734738058        3.8347107043
 O         5.6841153031       -0.4950907493        0.7760126890
 O         3.1959622018       -1.1913964427        4.5594527020
 C         4.8113812631       -3.1512480679        2.9713000242
 C         6.4334780159       -1.2990406556        3.3015844275
 C         3.4973853653        1.4599600910        4.9031048563
 C         4.1790885136        2.8628678545        5.3431657283
 C         3.7922683708        4.1221240828        4.5704731841
 C         2.7993359803        4.9599721331        5.5369345781
 C         3.1732115049        4.8729069520        7.0307921925
 C         5.0789157157        5.0746808853        4.5647889557
 C         3.0981423670        3.9024614361        3.2274590183
 O         4.9189947515        2.8114045082        6.2961241533
 O         1.8481261965        5.5998975030        5.0954859916
 C         2.3336250954        5.8049693309        7.9892273032
 C         3.1213932660        6.1429517751        9.2385459967
 C         3.5086133539        7.6518350900        9.7180290516
 C         5.0250845590        7.9817316109        9.2537686144
 C         6.1549675937        7.1149608560        9.9708080392
 O         3.5768551937        5.2263444586        9.9642647638
 O         5.3407110636        8.8211376518        8.4335694331
 C         2.5846585090        8.6933275654        9.1014985427
 C         3.5529355118        7.6294032073       11.2825245684
 H         0.9722704262       -4.7746097770       -2.8980959348
 H        -0.2721498015       -6.1137024989       -2.5143655764
 H         0.6043186142       -6.1644485422       -3.9927163733
 H        -4.3153796128       -5.8748372559       -5.7944352063
 H        -4.1155429079       -4.9699524849       -4.3289911748
 H         0.0341902266       -4.2045841109       -6.5708065261
 H        -0.8495262605       -5.6635051056       -7.3804077812
 H         0.3544834785       -5.9333374373       -6.2514414363
 H        -0.9646376363       -7.4573396182       -4.9533154342
 H        -2.5601082017       -6.9074098985       -4.2770455843
 H        -2.2420689673       -7.2657519910       -6.1052650090
 H        -5.3238369087       -3.1557016336       -5.0518205544
 H        -4.8308518679       -3.3878477486       -6.8257370304
 H        -8.1234650901       -5.2549542050       -2.5828111892
 H        -6.5959820092       -5.5524027315       -3.3722970514
 H        -8.5137674164       -2.5251247811       -7.0960171336
 H        -6.8734440487       -2.1827931313       -6.5604436081
 H        -8.1251322038       -1.6622431450       -5.6136210646
 H        -9.8643461857       -4.0275138586       -5.0689660257
 H        -9.4126559099       -5.0306345291       -6.5769775919
 H        -8.8289062679       -5.5798135248       -5.0078361902
 H        -5.7126531801       -4.8997404668       -1.0947786405
 H        -7.2922467822       -4.0754353354       -0.8724386450
 H        -5.8598523411        0.1375185301       -3.1006416434
 H        -5.8983173386        1.0042546464       -1.6447485352
 H        -7.2545604545       -0.9549209761       -1.0574041829
 H        -6.4699708592       -0.3474953663        0.3484551860
 H        -7.1710234801       -2.0533024541        0.1473101688
 H        -4.4369111516       -1.4223791807        0.8696330257
 H        -4.7085900298       -3.1889808950        0.6565758566
 H        -3.3249070179       -2.4802459563        0.0810196268
 H        -4.8076434823        2.3918289706       -3.7073998420
 H        -3.5153547378        2.0331275961       -2.5920837242
 H         0.7662548522        1.2438798370       -5.2067481066
 H         0.0216753668        2.6184059040       -4.4897653057
 H        -3.8662621892        0.8548514576       -7.2402529710
 H        -2.4912105701       -0.3022778459       -6.9199103619
 H        -2.2218943716        1.2669361034       -7.6339047397
 H        -1.6760940814        3.2229092640       -6.0742247139
 H        -3.4401104504        3.3488806548       -5.7893708852
 H        -2.4279618549        3.1227096841       -4.3630420988
 H         1.6942573063        1.6005401253       -2.8977276554
 H         1.0001877975       -0.0385541646       -3.3185521135
 H         3.7869946553        0.3432150768       -0.6496268087
 H         3.0932718412        1.0091930540        0.7848194985
 H         0.1751827254        3.2678929813        0.2628443445
 H         1.4544962115        2.9735548269       -0.9656772255
 H         1.6102155394        2.5985547901        0.6816762006
 H         0.4368257673        0.4454435675        1.5923659502
 H        -0.9518624406        1.4100798251        1.0873030603
 H        -0.7589176753       -0.3283369667        0.6320725701
 H         2.7891863868       -1.1471471016        1.7225269967
 H         3.3523481768       -1.9714619722        0.2568278365
 H         5.4111104812        0.8342734601        4.3094233024
 H         4.4461734234        1.1861169310        2.8494306104
 H         5.1079472007       -3.5430647336        1.9868825144
 H         3.8761646351       -3.3507182672        3.4244292694
 H         5.5452895368       -3.6059244003        3.6589428097
 H         6.7795081018       -0.2868970603        3.2742080798
 H         6.6224448061       -1.5712795485        4.3262157418
 H         7.1234853444       -1.8243327324        2.7130854459
 H         3.3364352344        0.8600134793        5.8339925498
 H         2.5046264395        1.4467208452        4.4106030052
 H         3.0366900773        3.8481021645        7.4139475478
 H         4.2662858793        5.1654355903        7.1568739528
 H         5.5688610197        5.1599368115        3.5946180582
 H         5.8105141606        4.6405161582        5.2007071704
 H         4.9326727703        6.1440075688        4.8662182187
 H         1.9924361853        3.6107523242        3.2868061632
 H         3.2306088943        4.8735981079        2.8222890130
 H         3.7227886991        3.3098792456        2.5040949760
 H         1.8532037071        6.6361927961        7.4902055957
 H         1.4452310027        5.2759550211        8.4368557348
 H         5.8567345885        6.0593218028       10.0500238199
 H         6.9924810494        7.2675446681        9.4162713107
 H         6.4869070369        7.4951417180       10.9289729178
 H         1.5800918769        8.4241991226        9.5024721780
 H         2.6127580248        8.7267554897        7.9808417507
 H         2.9357020234        9.5942021004        9.6122226920
 H         2.5867885492        7.4842688527       11.7473585382
 H         4.1265652993        6.7280940028       11.5427141465
 H         4.0340645087        8.4251988720       11.8557479003
 Na       -3.1767181513       -1.8194156551       -3.9900025391
