155

 C         0.4302536171       -5.2864621796       -3.4490070623
 C        -0.7783297659       -4.6465623729       -4.0170843274
 C        -1.4449757572       -5.2810921589       -5.3413530643
 C        -2.6506003548       -4.3482212557       -5.6255989387
 C        -4.0662648080       -4.9317850009       -5.3831605931
 C        -0.4442381927       -5.1596861551       -6.4240340696
 C        -1.8890128951       -6.7139516576       -5.1212833074
 O        -1.2843851891       -3.6684499962       -3.5402431315
 O        -2.5178435934       -3.1952551815       -6.0451651787
 C        -5.1386133556       -4.0526483106       -6.0449077423
 C        -6.5860035424       -4.7431096998       -6.0474342101
 C        -7.7782907303       -3.9616204612       -5.4122157598
 C        -7.5090235156       -3.5248310786       -3.9504112410
 C        -7.0116140926       -4.6778360476       -2.9669933708
 O        -6.7002735734       -5.8333301858       -6.5540076866
 O        -7.5703890636       -2.3809037508       -3.5187257125
 C        -7.9093645599       -2.6274944445       -6.2117626269
 C        -9.1466620489       -4.7305039796       -5.6647046422
 C        -6.5726671709       -4.0535048190       -1.6196579072
 C        -5.5298164285       -2.9695649531       -2.0071060837
 C        -5.3003194148       -1.7827147734       -0.9783432685
 C        -4.4343419693       -0.7015371005       -1.6620064788
 C        -5.1137812979        0.5774454377       -2.3086761187
 C        -6.6515049469       -1.1678061060       -0.4945373357
 C        -4.6215921338       -2.3888870135        0.2864804415
 O        -4.6907430758       -3.1474448673       -2.9808059223
 O        -3.2470519858       -0.7760887425       -1.8634633387
 C        -4.2587724917        1.4022656896       -3.1791300468
 C        -3.9534961945        0.7488556828       -4.5047074517
 C        -2.6846828549        1.3034254797       -5.2936525110
 C        -1.2853911807        0.8626457066       -4.5714028943
 C        -0.0415753243        1.7309542102       -4.4290911488
 O        -4.5463946575       -0.1697602913       -5.0462300030
 O        -1.1482964482       -0.3433638508       -4.4717610882
 C        -2.4304645886        0.7688611065       -6.6897922832
 C        -2.8219351087        2.8375348910       -5.5279992784
 C         0.6970406296        1.1299435243       -3.2301618026
 C        -0.1864622503        1.1508713694       -1.9646462961
 C         0.4822552306        1.2166860185       -0.5722031690
 C         1.7346046604        0.0646135744       -0.7055969221
 C         3.1298373206        0.2350230940       -0.0236226783
 C         1.0035810721        2.6385488404       -0.2624705605
 C        -0.5663324644        0.6291973125        0.3780531982
 O        -1.4194838067        1.2567637546       -2.0724946321
 O         1.4548010789       -1.0089759062       -1.2762373754
 C         3.4313462961       -0.9624015405        0.9638924647
 C         4.9502756196       -1.0884068525        1.4776498814
 C         5.1106548794       -1.5628670186        2.9819702847
 C         4.1337439665       -0.7775293178        3.9982574193
 C         4.0795400688        0.8446390079        3.7978292581
 O         5.8304513724       -0.9718758799        0.7191824372
 O         3.4761536833       -1.4557895039        4.7535092599
 C         4.7327010486       -3.0415084661        2.9777026018
 C         6.5630636759       -1.2703724511        3.3832519860
 C         3.2738008820        1.5483663746        4.8690967129
 C         4.0136525716        2.7271092900        5.3671204707
 C         3.7595304690        4.1640161679        4.6640309405
 C         2.7202804725        4.9131378819        5.6624267795
 C         3.2671839127        5.3130518941        6.9903263208
 C         5.1229876088        4.9425396156        4.5120289504
 C         3.1873513711        4.1133479310        3.2388738015
 O         4.8551381766        2.8463600298        6.3075321237
 O         1.6008166974        5.0967964753        5.2150002787
 C         2.4076849995        6.1416122433        7.8702420148
 C         3.0491727596        6.2105683793        9.2860883346
 C         3.4925876929        7.6004578887        9.8432584663
 C         5.0576097260        7.8995053321        9.3940510703
 C         6.1282690065        7.1115493557       10.0419900884
 O         3.2121401753        5.1684850158        9.7973114656
 O         5.2758251603        8.8173976567        8.6507785360
 C         2.6277391010        8.8258203918        9.2316994625
 C         3.4114353456        7.5671994044       11.3355739977
 H         1.1295678405       -4.5857229680       -3.2630811533
 H         0.0139491230       -5.6274251241       -2.4855658750
 H         0.9471727169       -6.1036441851       -3.9790306390
 H        -4.1487073112       -5.9735800085       -5.8112436799
 H        -4.3273379890       -4.9831630526       -4.3320004644
 H        -0.4913796704       -4.1284358289       -6.7350794078
 H        -0.6173299746       -5.8014907254       -7.2565038296
 H         0.5951007160       -5.4245082937       -6.0594282989
 H        -1.0705771473       -7.2769767211       -4.7109148613
 H        -2.6909599618       -6.8790562877       -4.4829454688
 H        -2.0754538620       -7.1813478597       -6.0436911318
 H        -5.1399639714       -3.0994585534       -5.4633258543
 H        -4.7982305211       -3.8437436795       -6.9728724797
 H        -7.7556230380       -5.4303092712       -2.8720246072
 H        -6.1058136719       -5.1767670966       -3.4160149305
 H        -7.8960589318       -2.7083013171       -7.3096565088
 H        -7.1358932532       -1.8289857787       -5.9096881512
 H        -8.7791955653       -2.0485044298       -5.9038372699
 H        -9.8369420990       -3.9311104341       -5.8887008728
 H        -9.0215956904       -5.3658693537       -6.5205516698
 H        -9.3465936322       -5.4695819109       -4.8698506798
 H        -6.1974610958       -4.7034492626       -0.8430955153
 H        -7.4696976213       -3.5842189211       -1.2266927818
 H        -6.0141706291        0.2905685902       -2.9313366347
 H        -5.5495634855        1.1573224403       -1.5167217595
 H        -7.3321578603       -0.4708389068       -1.0713167089
 H        -6.2880502997       -0.5365915047        0.3747601285
 H        -7.3470035100       -1.9296936185       -0.2316478211
 H        -4.2757856776       -1.7533550334        1.0682107450
 H        -5.3313650759       -3.1320070267        0.7422724019
 H        -3.7898728276       -3.0750038041        0.1156176710
 H        -4.7290705942        2.3187866110       -3.5221637435
 H        -3.3641593812        1.7539145319       -2.6529649979
 H         0.5518483763        1.6581342566       -5.3302346390
 H        -0.0568734156        2.7644660020       -4.2341967153
 H        -3.2078626886        0.8750741638       -7.3751214850
 H        -2.2107583838       -0.2583371708       -6.6436750309
 H        -1.4634007765        1.2205074880       -7.0442114701
 H        -1.8642287950        3.1659328238       -5.9170857897
 H        -3.5440085362        3.0782004646       -6.2921077714
 H        -3.0801296098        3.3198635428       -4.6054593042
 H         1.5941292751        1.6176872674       -2.9276221789
 H         0.9158258907        0.0898893582       -3.4057397371
 H         3.9831326016        0.2698257695       -0.7640672710
 H         3.2062830741        1.1241912572        0.5901695337
 H         0.1884247328        3.2414423695        0.1118659957
 H         1.5375011251        3.0227816564       -1.1867074283
 H         1.6464959423        2.6150914904        0.5985359256
 H        -0.1653518089        0.5812999527        1.3661789233
 H        -1.5622687666        1.1808935550        0.3035617543
 H        -0.6917501567       -0.4093953766        0.0799421167
 H         2.5849683680       -0.9846402864        1.7329386353
 H         3.4338243752       -1.9342479784        0.3525005935
 H         5.0574384687        1.2815054908        3.8516123100
 H         3.6492053080        0.9405563365        2.7796701675
 H         5.4877483198       -3.5260561579        2.3741545348
 H         3.6518680766       -3.0457773930        2.5345167889
 H         4.7251037236       -3.4714799085        3.9950468257
 H         6.9196012072       -0.2626734134        3.0938551705
 H         6.7824893012       -1.5109417019        4.4639684057
 H         7.3428887238       -1.8464781216        2.8405527097
 H         2.9881471137        0.9350427810        5.6781048203
 H         2.2988841306        1.8085720887        4.5028681254
 H         3.5592742417        4.3812288470        7.5013436059
 H         4.1930717440        5.8704964574        6.8484536834
 H         5.4792748230        4.8043430757        3.5041246752
 H         5.9887641057        4.6630433358        5.1131976436
 H         4.9289514869        6.0117846302        4.4796954568
 H         2.3114539725        3.5821638989        3.3060620124
 H         2.8859430486        5.0932755189        2.8495155635
 H         3.8476988088        3.6562407360        2.5862272492
 H         2.4728105969        7.1272926829        7.3451147790
 H         1.3747533390        5.8737377143        7.9144645842
 H         6.2357488623        6.1884607698        9.5206751784
 H         7.0767217253        7.7420606624       10.1938486186
 H         5.8349247696        6.9134127504       11.0613238899
 H         1.5680377089        8.7029237759        9.5036012744
 H         2.8046309867        8.7236203972        8.1780244190
 H         3.1750940828        9.7678253768        9.5159493991
 H         2.3930864487        7.7936048918       11.6823932609
 H         3.7103350416        6.7028615150       11.9104455344
 H         4.0298382038        8.3578058340       11.7018386450
 Na       -2.8888244173       -1.9299901071       -4.3672537596
