155

 C         1.0752419195       -4.8100705582       -4.1013393464
 C        -0.4012880565       -4.4813183059       -4.2314144546
 C        -1.1961655856       -5.1495870915       -5.3584278939
 C        -2.4980759410       -4.3481739746       -5.6470245683
 C        -3.7877718681       -5.1373298635       -6.0452536152
 C        -0.3760503411       -5.1353163914       -6.6910987400
 C        -1.3645662050       -6.6556087305       -5.0787269015
 O        -0.9415864832       -3.6893460011       -3.5068286599
 O        -2.5210043255       -3.1420187049       -5.6152825210
 C        -5.0142055014       -4.2832507393       -6.3232202581
 C        -6.3140177186       -5.0545116374       -5.9641321276
 C        -7.5318673045       -4.1440391096       -5.6429193900
 C        -7.2939413309       -3.5821567850       -4.2507451060
 C        -7.5542767325       -4.3915123492       -3.0142951844
 O        -6.3367151243       -6.2362082631       -5.6984508281
 O        -6.9465125398       -2.4594531381       -4.0189879013
 C        -7.7154636167       -2.9667204546       -6.6468345102
 C        -8.8073487483       -5.1591757265       -5.7718168294
 C        -6.3866369769       -4.3661238819       -2.0029539948
 C        -5.4906367025       -3.1140242805       -2.1695810078
 C        -5.6592552448       -1.9540541275       -1.2456536425
 C        -4.8375847018       -0.7200051039       -1.8311615899
 C        -5.5167753349        0.4043577760       -2.5842537717
 C        -7.1277129828       -1.6712774713       -0.9407302471
 C        -4.9505347490       -2.1857565875        0.0422447406
 O        -4.6295324663       -3.1533193055       -2.9944566646
 O        -3.6077616285       -0.8389115619       -1.9166008713
 C        -4.5465626382        1.2130386297       -3.4086208004
 C        -3.9972886890        0.5519399229       -4.7389858289
 C        -2.8644668213        1.3158891220       -5.4579159815
 C        -1.4865284498        0.9202783367       -4.7077023589
 C        -0.2186758714        1.7886648055       -4.5857714378
 O        -4.4213165666       -0.5406280524       -5.1463127528
 O        -1.3418768963       -0.2172633345       -4.3339386869
 C        -2.6301078770        0.7005862324       -6.9509105245
 C        -3.0814741162        2.8126736505       -5.5142355408
 C         0.8047957206        1.5809614289       -3.3873136425
 C         0.1673506954        1.7211019730       -2.0250079710
 C         0.9670356419        1.3376470776       -0.7812009925
 C         1.9892719374        0.0958421740       -0.9157203607
 C         3.1680455314        0.1952317570       -0.0059866702
 C         1.7665757908        2.6743692155       -0.3305557424
 C         0.2126581307        0.8218800346        0.5233200545
 O        -1.0056588368        2.1055858718       -1.8560819605
 O         1.6212606670       -0.8889886756       -1.5310049703
 C         3.3920808229       -0.9905810316        0.9214518291
 C         4.7680025462       -0.9974089620        1.5579119861
 C         4.8589696329       -1.6790367651        2.8820351447
 C         4.0726077273       -0.8335802717        3.9529830349
 C         4.4530600060        0.6840295099        3.9980743223
 O         5.6729349645       -0.4892966071        1.0109007617
 O         3.4271183745       -1.4308020740        4.8340776002
 C         4.3468295904       -3.2480113910        2.8772921716
 C         6.3573074655       -1.7449665285        3.4085536259
 C         3.5229519552        1.4870440357        4.9748491825
 C         4.1587266925        2.7336159763        5.5727382691
 C         3.7051860204        4.2536807392        5.0276888078
 C         2.8986035970        4.9444011589        6.2077098963
 C         3.3537943967        6.4086442632        6.5378288883
 C         4.9851591791        4.9787486931        4.4761736343
 C         2.6306739710        4.0238185988        3.9305532821
 O         5.1967831699        2.6465104110        6.2773430443
 O         2.1182851516        4.2116884919        6.7743347411
 C         2.4550727549        7.3601407139        7.4102908079
 C         2.3522820178        6.7895791214        8.8791394712
 C         3.0133009459        7.7189141108       10.0607649219
 C         4.5855863322        7.6025546263        9.9078869075
 C         5.3025820857        6.4504229605       10.5181808381
 O         1.8343040775        5.7936039544        9.1392126799
 O         5.1343878806        8.4014461384        9.2045461823
 C         2.6048801933        9.2013918147        9.9893745075
 C         2.6071834151        7.2708217344       11.4532245200
 H         1.5985649591       -4.5420120494       -4.9822431525
 H         1.5804999836       -4.0844398902       -3.3164207349
 H         1.3216251784       -5.8437925500       -3.7512576174
 H        -3.6320522038       -5.7802805272       -6.8745786806
 H        -4.0851501283       -5.8880476205       -5.2287775359
 H        -0.1069491602       -4.1384546573       -6.9387712380
 H        -0.9816391053       -5.6256161453       -7.5024091635
 H         0.5463741317       -5.7108935950       -6.6426120240
 H        -0.4504800738       -7.1321740325       -5.3609159944
 H        -1.4691613665       -6.9453182280       -4.0788038555
 H        -2.0704547890       -7.1418561877       -5.6490229711
 H        -4.9568105880       -3.4443041659       -5.6772611681
 H        -5.0765395246       -3.8500076624       -7.3392898242
 H        -8.5312049008       -4.0210282640       -2.6299031621
 H        -7.7616546014       -5.3993567966       -3.3657460816
 H        -7.4611536420       -3.1073290433       -7.7200410724
 H        -7.2530520283       -2.0105165525       -6.4211232740
 H        -8.7979619215       -2.8060745077       -6.7896634280
 H        -8.5042300100       -6.1145872530       -5.3449354486
 H        -9.8052342572       -4.7803931111       -5.4188060748
 H        -8.9264315387       -5.5106728711       -6.8324422374
 H        -5.7770319022       -5.2205047441       -2.1767718502
 H        -6.7140420825       -4.4202204684       -0.9733228348
 H        -6.2326298342        0.0067221886       -3.2874486149
 H        -6.0058034119        1.1185307535       -1.8496116665
 H        -7.6472809373       -1.3097671169       -1.9164084755
 H        -7.3234091031       -1.1245329199       -0.0092832576
 H        -7.5835423728       -2.5981242534       -0.6273091361
 H        -5.0746771090       -1.4284337699        0.8037590576
 H        -5.1866210014       -3.2035486812        0.5412816761
 H        -3.8731416861       -2.1710188991       -0.1159279246
 H        -4.8893791132        2.2340830865       -3.7069938704
 H        -3.6453815629        1.3509912032       -2.8212480324
 H         0.4194404306        1.7291169663       -5.4602311399
 H        -0.4984643900        2.8637770211       -4.5939504026
 H        -3.1027884184        1.2121632372       -7.7357845383
 H        -2.9735783311       -0.3051266682       -6.9251512540
 H        -1.5823260823        0.6710237704       -7.2500630185
 H        -2.4465986330        3.2789881392       -6.2709402643
 H        -4.0812583063        3.0731311691       -5.8103158680
 H        -2.8834518019        3.3164696861       -4.5113650864
 H         1.5365646314        2.3748773041       -3.4561347188
 H         1.3828247949        0.7003503037       -3.4826023171
 H         4.2078684111        0.3337915239       -0.4417902476
 H         3.0378037800        1.1248036460        0.5920616172
 H         1.0352869783        3.4145037189       -0.5068645851
 H         2.7363500474        2.8669994544       -0.9200436969
 H         1.9149033827        2.6794438237        0.7660890625
 H         0.9404272072        0.8010043585        1.3136101483
 H        -0.5680108189        1.5223318533        0.8749993064
 H        -0.1372508772       -0.1933290642        0.3503081341
 H         2.5948914984       -0.9460643865        1.7315004633
 H         3.1869234484       -1.9832429176        0.4250641374
 H         5.5074949929        0.8276886358        4.3765483940
 H         4.5110277767        1.0847091864        3.0021316163
 H         5.1519202975       -3.8430695074        2.4065481771
 H         3.3632226268       -3.4264487371        2.3953200893
 H         4.1202686014       -3.3558340615        3.9630229354
 H         6.9406054746       -0.8588885535        3.1307100776
 H         6.5108638920       -1.6674866240        4.4651503950
 H         6.7826041974       -2.6799586602        2.9110715807
 H         3.4165216029        0.8612061556        5.8579706534
 H         2.5942773995        1.7816139839        4.6014260933
 H         4.2928390284        6.2761937415        7.0777797436
 H         3.6440862049        6.8542992607        5.6611117729
 H         5.3907881364        4.5464671770        3.5697646774
 H         5.7070602112        5.1673437743        5.2941043658
 H         4.6608973048        5.9080231199        4.1849405099
 H         1.7768792283        3.5856138477        4.3611640697
 H         2.3543720924        4.9418545376        3.3969464806
 H         3.0081290353        3.3948062565        3.1508062155
 H         2.9509667927        8.3013558902        7.4630383241
 H         1.4526374751        7.3941907469        6.9343737431
 H         5.4838370453        6.5145436474       11.5904427786
 H         4.5213522016        5.6044812311       10.4395249078
 H         6.1777865491        6.2012821021        9.9713058018
 H         1.8030580175        9.3784750209        9.2375637921
 H         3.4872510430        9.7636020914        9.5864349575
 H         2.0932147929        9.5371368519       10.9031847787
 H         1.5494616735        7.3670273961       11.5941437787
 H         2.8756379457        6.2656685518       11.7087967931
 H         3.0844223180        7.9708310365       12.2129279467
 Na       -2.5570466170       -2.0033371736       -3.6393184507
