155

 C         1.2318915572       -4.7481511429       -4.2706912275
 C        -0.2798971496       -4.3895753497       -4.3892241759
 C        -1.0373467440       -5.0949068817       -5.4793558617
 C        -2.2920287923       -4.3883505615       -5.8832382875
 C        -3.6251759950       -5.2771334768       -6.0999718085
 C        -0.1297328402       -5.0918614989       -6.7389483054
 C        -1.1717323005       -6.5201185545       -5.0483211294
 O        -0.6943541347       -3.5113416696       -3.6366870240
 O        -2.3367326695       -3.1503548574       -5.9840917085
 C        -4.9217500944       -4.4533207778       -6.2082261584
 C        -6.2400418418       -5.1329188816       -5.6619239107
 C        -7.5384170433       -4.1603138057       -5.7165475169
 C        -7.4878991093       -3.4503253838       -4.4031949464
 C        -7.7504369327       -4.2814143962       -3.0873586037
 O        -6.2315031800       -6.2832857739       -5.2937136446
 O        -7.3019613565       -2.2392921772       -4.3425827903
 C        -7.6276323962       -3.1059370840       -6.8491233856
 C        -8.7120884689       -5.1248290484       -5.8521727588
 C        -6.4082559184       -4.4238613884       -2.1344731698
 C        -5.2964984438       -3.4495116436       -2.0819364737
 C        -5.6425556306       -2.0859529973       -1.4615993209
 C        -4.9103333352       -0.9093635659       -2.0269363722
 C        -5.6794905336        0.1750756455       -2.8417345373
 C        -7.1329188381       -1.7435699716       -1.4143364352
 C        -5.1990444606       -2.2375036713        0.0405660246
 O        -4.1644498555       -3.6661081796       -2.4975625980
 O        -3.6619514152       -0.8582660620       -1.9212959653
 C        -4.8214066548        1.2277340739       -3.6113502400
 C        -3.9718513527        0.4927805601       -4.6210237658
 C        -2.7658774968        1.3108413379       -5.2573286037
 C        -1.5152842498        0.8467673608       -4.4378291640
 C        -0.2299898593        1.7817402360       -4.5197336732
 O        -4.1875948357       -0.6814806616       -4.9806126449
 O        -1.3936882681       -0.1997263603       -3.9530303531
 C        -2.5815184670        0.6286417910       -6.6833681419
 C        -2.9543335798        2.8517247636       -5.4403445214
 C         0.7459483794        1.3511498306       -3.4224186457
 C         0.0712249198        1.5074198106       -2.0303984594
 C         0.9919743430        1.6543963822       -0.7700439331
 C         1.9347582765        0.3852540590       -0.8113744901
 C         3.3966690731        0.5063473484       -0.1734359012
 C         1.8013524130        2.9873245497       -0.8462064159
 C         0.0317689179        1.6163693759        0.5705945809
 O        -1.1158584517        1.6978773327       -1.9763649740
 O         1.5699126178       -0.6034287499       -1.3903846815
 C         3.5834284508       -0.6069793168        0.9147370487
 C         5.0640844977       -0.8246528003        1.6714030091
 C         4.7791604932       -1.7579260207        3.0002415852
 C         3.9660809459       -0.7585275112        4.0351475529
 C         4.7826414907        0.4100640824        4.7650129725
 O         6.0353880914       -0.2037931696        1.4201792837
 O         2.7639576495       -0.8976031723        4.2112712812
 C         3.9609873839       -2.9920449013        2.6262509998
 C         6.1665632385       -2.1306734242        3.5602055572
 C         3.7956755340        1.4565999999        5.4403302005
 C         4.4369911166        2.7935868063        5.6349028092
 C         3.7713000820        4.1677199978        5.0020819354
 C         3.1514231978        4.8840477991        6.3445451900
 C         3.5952789233        6.3633939893        6.7940149362
 C         4.9248837306        4.9633507019        4.3774962373
 C         2.6066523119        3.9989218245        4.0405682671
 O         5.5021322294        2.9678456454        6.2003694522
 O         2.1864192172        4.3153512982        6.8980436215
 C         2.3422578198        7.1735840476        7.4304969137
 C         2.0227980751        6.7988802097        8.8314371656
 C         2.7519663558        7.5505996361       10.0546111803
 C         4.3508192843        7.3728740799        9.8544792505
 C         5.0412129722        6.1397828490       10.5570562822
 O         1.2709941540        5.8456439805        9.0382987000
 O         5.0370778454        8.2119391507        9.3052051748
 C         2.4759762676        9.0673067901        9.8288237769
 C         2.3959629346        7.1921175360       11.5511323717
 H         1.8248564087       -3.9415605458       -4.7936023431
 H         1.6383134015       -4.5519396322       -3.2889240997
 H         1.4692958145       -5.7229735585       -4.5049997194
 H        -3.6353408359       -5.9235228063       -6.9138509785
 H        -3.7168211926       -5.9851258710       -5.2032384568
 H         0.1912279027       -4.0972972086       -6.9771691990
 H        -0.6942480984       -5.5806361260       -7.5524710725
 H         0.7951530915       -5.7310730776       -6.6105147191
 H        -0.1644856027       -6.8971531476       -4.8197889444
 H        -1.7199783116       -6.7441822768       -4.2021864780
 H        -1.4192186452       -7.1382071777       -5.9334679331
 H        -4.8702219361       -3.5161384073       -5.7255319542
 H        -5.0533661849       -4.2261858163       -7.2377509408
 H        -8.5456904307       -3.7158595900       -2.5692599102
 H        -8.1308659636       -5.3014509123       -3.3147865238
 H        -8.1033270946       -3.4156330742       -7.7662609494
 H        -6.7757928428       -2.4253540816       -7.1011979207
 H        -8.2796434703       -2.3308528961       -6.5222634251
 H        -8.4289975053       -6.1594272499       -5.4929136289
 H        -9.6280919223       -4.9134337140       -5.3020391859
 H        -8.9645876226       -5.2621290083       -6.9477807110
 H        -5.9211465669       -5.3735607717       -2.4555316549
 H        -6.6740637846       -4.6104077574       -1.0590124412
 H        -6.1382136081       -0.3896045558       -3.6019812045
 H        -6.3596321553        0.8276292264       -2.2713625219
 H        -7.6869840299       -1.6956396387       -2.3726115298
 H        -7.0901776097       -0.8117338269       -0.7420614503
 H        -7.7078119997       -2.5419985638       -0.9359773364
 H        -5.1538758890       -1.2561922350        0.4846831748
 H        -5.7642396031       -3.0626886585        0.5527065159
 H        -4.1257755416       -2.5872074159        0.1330976748
 H        -5.4669176342        1.9252653542       -4.2016271307
 H        -4.1728317763        1.7829182930       -2.9508823416
 H         0.0229309815        1.6577005559       -5.5505960784
 H        -0.5252146676        2.8271387092       -4.3009381555
 H        -3.5418293606        0.3672306684       -7.0597597477
 H        -1.9258782840       -0.2014095057       -6.5611530302
 H        -2.1503521140        1.2835326757       -7.5197884287
 H        -1.9732669548        3.1955857406       -5.8102527385
 H        -3.6238135478        3.0927937894       -6.2751329359
 H        -3.3909960606        3.4604499888       -4.6075227776
 H         1.6786632996        1.9569346405       -3.4499638076
 H         1.0531995197        0.2969163552       -3.4545962287
 H         4.0661682482        0.3881246085       -1.0274217395
 H         3.5212645127        1.4692975210        0.2327917581
 H         1.2621987041        3.8634749938       -0.6644478102
 H         2.2637461759        2.9057308717       -1.8293248350
 H         2.4748207609        3.0214571526       -0.0533936492
 H         0.7014294845        1.8849272679        1.3121088039
 H        -0.8195611151        2.4069606616        0.5134519918
 H        -0.2848126286        0.6420644282        0.8180198693
 H         2.6973595496       -0.5359163525        1.5964010054
 H         3.4673006513       -1.5234915663        0.2810636077
 H         5.4335193993       -0.0550982483        5.5557181633
 H         5.4003187592        0.8830348042        4.0343070595
 H         4.2728316715       -3.3406603639        1.6796595403
 H         2.9192270251       -2.7272945973        2.9243552130
 H         4.2695260216       -3.7121869922        3.3825585355
 H         6.6898137569       -1.3776274509        4.0824620924
 H         6.1253304630       -2.9499435624        4.2650690158
 H         6.6679481473       -2.3140880363        2.6495343967
 H         3.5767542852        1.1068049786        6.4556338105
 H         2.8442376500        1.4762359045        4.9505360468
 H         4.3985468717        6.2728418783        7.6016093454
 H         3.9545659307        6.8816136975        5.9410979167
 H         5.5361885157        4.3003528590        3.7303708420
 H         5.5931465803        5.3936442705        5.1495869458
 H         4.5159905249        5.7361606276        3.7695302547
 H         1.9119964671        3.4154678671        4.6284029999
 H         1.9296320511        4.8881869518        3.7233791677
 H         2.9463415952        3.4368691529        3.1296340428
 H         2.5701577490        8.2252841308        7.4125232175
 H         1.4161053182        7.0190845574        6.8402995419
 H         4.3813829635        5.3379093524       10.7109785300
 H         5.7911406983        5.7425140007        9.8349404098
 H         5.5659416491        6.4106291086       11.4238972550
 H         1.9724249996        9.2835903711        8.8707006563
 H         3.4032204703        9.6492556466        9.7364377172
 H         1.7323635887        9.5656276523       10.5391065966
 H         1.4089180457        7.5202125496       11.8120806758
 H         2.5129786580        6.1377755349       11.7754697148
 H         3.1843937818        7.6776979704       12.1758304238
 Na       -2.6663178542       -2.0665767710       -3.7843376007
