155

 C         1.2136436089       -4.6593645610       -4.2830889191
 C        -0.1959324614       -4.2058664949       -4.5069479901
 C        -0.8280941791       -5.0839110154       -5.6044092280
 C        -2.1829252052       -4.4062915126       -5.8735399246
 C        -3.5124776585       -5.2815196954       -5.6885811308
 C        -0.1122913688       -5.1396710825       -6.9909657212
 C        -0.9254275250       -6.5391499843       -5.0536244855
 O        -0.7428605387       -3.3553188736       -3.8268930082
 O        -2.2264916058       -3.2176793782       -6.2031722684
 C        -4.7699909332       -4.4455133793       -6.1640144739
 C        -6.1276300735       -5.0572364679       -5.6870085541
 C        -7.4284820016       -4.2987051672       -5.8818438979
 C        -7.5316443081       -3.5403708439       -4.4778287839
 C        -7.7487836719       -4.4374487133       -3.2824819432
 O        -6.1028874806       -6.0737495862       -5.0027004731
 O        -7.2545978152       -2.3815188762       -4.3676315350
 C        -7.3927941450       -3.3455159478       -7.0720934258
 C        -8.5201041459       -5.3556626424       -6.1038084379
 C        -6.5383899103       -4.3929111828       -2.2473222658
 C        -5.5896799112       -3.3727089494       -2.2782034587
 C        -5.8179792485       -2.0805214073       -1.3400926718
 C        -5.1059179522       -0.9628677138       -2.0647014065
 C        -5.8854574456        0.0685380059       -2.8620452924
 C        -7.3019149280       -1.8027479714       -0.8683631252
 C        -4.8980703958       -2.3719633565       -0.1264162066
 O        -4.6048134425       -3.5349262874       -3.0067591277
 O        -3.8347972569       -0.8948850008       -2.1274721407
 C        -4.8226151374        1.0562985877       -3.5686135487
 C        -3.9210684049        0.3056222611       -4.6693214703
 C        -2.6577195926        1.0518216094       -5.2751786184
 C        -1.3410676946        0.5294063739       -4.4293315625
 C        -0.3537800484        1.7229118835       -4.4306318620
 O        -4.0866556187       -0.8644124741       -5.0710013472
 O        -1.1192138122       -0.5383444052       -4.0736589067
 C        -2.5643032655        0.6060665127       -6.7402460051
 C        -2.8067422254        2.5448416455       -5.1990242605
 C         0.7556340021        1.4299793392       -3.3802828527
 C         0.1700893706        1.7471641974       -1.9487470388
 C         1.1699222970        2.0643280787       -0.7918181016
 C         2.2006080010        0.8523221628       -0.7000091927
 C         3.3439263895        0.8562855572        0.2622238903
 C         2.0657003711        3.3849818280       -1.1008343343
 C         0.4338618741        2.0804424992        0.5273389343
 O        -1.0118034326        1.8620757532       -1.7511692357
 O         2.0133579461       -0.1547460514       -1.3480792540
 C         3.3431622970       -0.4995084626        1.0016884965
 C         4.5728881678       -0.5859471501        1.8532018406
 C         4.5985995293       -1.4294919709        3.1455485873
 C         3.8535499350       -0.4335958482        4.0099475806
 C         4.6566611511        0.2189422165        5.2756566871
 O         5.5667043902        0.0736762355        1.6673586008
 O         2.6988310234       -0.2414337032        3.7705079781
 C         3.8176676732       -2.8560251128        3.1379708621
 C         6.1008250075       -1.7150490026        3.4459701500
 C         3.7799844033        1.4590509659        5.7587704934
 C         4.6086872380        2.8203869964        5.5123446057
 C         3.8995991430        4.1572799616        5.0635970473
 C         3.1257690582        4.5890326066        6.4397744109
 C         3.7127386118        5.8972146874        7.0626038331
 C         4.9525077016        5.0361621817        4.4535461024
 C         2.7269532349        3.9227876559        4.0179847351
 O         5.7449867824        2.9046781719        5.8784615911
 O         2.2541319010        3.9637819913        6.9403032829
 C         2.5722510346        6.9241204680        7.4008136024
 C         1.9066428182        6.7643250657        8.7794625178
 C         2.5351148307        7.4836860147       10.0049398115
 C         4.0910184389        7.1182169040        9.9025383172
 C         4.8447390539        5.8181974465       10.5535179565
 O         0.9950513848        5.9643404041        8.9165826049
 O         4.7803288794        7.9267653487        9.2815608170
 C         2.3725136559        9.0339325476        9.8728559051
 C         2.0019906468        7.0674461917       11.3963135230
 H         1.9334127194       -3.8709882411       -4.6057806860
 H         1.3988269446       -4.7008097207       -3.3054933218
 H         1.5043301344       -5.5778683052       -4.7145281511
 H        -3.3156417370       -6.1303967858       -6.2441351178
 H        -3.7580995263       -5.6647372060       -4.6254792483
 H        -0.3842141617       -4.2211662500       -7.4623267074
 H        -0.5483721676       -5.8368037256       -7.6513837420
 H         0.9990351452       -5.2356991677       -6.9105220632
 H         0.0215525536       -6.8903188872       -4.5948140006
 H        -1.7220941262       -6.6061163471       -4.2890476807
 H        -1.3124197588       -7.2456570806       -5.9031246531
 H        -4.5693759988       -3.4593626898       -5.7682269216
 H        -4.7410687180       -4.3118150169       -7.2168053144
 H        -8.6673924669       -4.2214626073       -2.7714030912
 H        -7.7513031261       -5.5093021997       -3.5979482045
 H        -6.9239731591       -3.8195468274       -7.8915132322
 H        -6.8375610659       -2.3728307374       -6.9023616408
 H        -8.3155044462       -2.9787542352       -7.3672657564
 H        -9.3094290950       -5.3535059541       -5.3500263880
 H        -9.0160124039       -5.2617148718       -6.9793743580
 H        -8.0384759550       -6.3070994291       -6.1999623986
 H        -5.9591256329       -5.3596776370       -2.3490005915
 H        -7.0947562021       -4.4456689036       -1.2687866353
 H        -6.4030514164       -0.3642941681       -3.6586393361
 H        -6.5023034201        0.6835014267       -2.1866828011
 H        -8.0289741355       -1.6928399511       -1.6252175974
 H        -7.2336585216       -0.7529249193       -0.3867637212
 H        -7.5270045700       -2.6102709387       -0.1646048945
 H        -5.0314196058       -1.7663181985        0.7674253435
 H        -5.0544016561       -3.3920253927        0.2038431145
 H        -3.8331272022       -2.3526615681       -0.4760818344
 H        -5.3718686371        1.8794856191       -4.0681410525
 H        -4.1265757803        1.4274994756       -2.8380928286
 H         0.0712943411        1.7485283744       -5.4056402945
 H        -1.0171664695        2.5356790393       -4.2764507396
 H        -3.1664276344        1.2912741565       -7.3520658965
 H        -3.0598017389       -0.3651063294       -6.7712908545
 H        -1.4896853416        0.4068866269       -7.1611368360
 H        -2.0247881470        3.1552588154       -5.6563861962
 H        -3.7815875569        2.8868989290       -5.5349431033
 H        -2.7689305639        2.8025520555       -4.1501029470
 H         1.6698434520        2.0416173794       -3.6673797326
 H         1.0408564208        0.3275066060       -3.4515332495
 H         4.2451148838        1.0691927699       -0.2353731203
 H         3.1082194869        1.5691817846        0.9589113918
 H         1.5286724474        4.1172390326       -1.7232810710
 H         2.9079267039        3.0652103743       -1.7380808643
 H         2.3438954738        3.8306643908       -0.1653722797
 H         1.0813107353        2.1459964693        1.3614221239
 H        -0.3394052912        2.9198830749        0.4437372841
 H        -0.1484451714        1.1756496652        0.5783181615
 H         2.4585473171       -0.4565362368        1.6382206549
 H         3.2691766323       -1.3309039719        0.2991736534
 H         4.7739466342       -0.5314628072        6.0978329480
 H         5.5740628378        0.5254372836        4.8437421824
 H         4.3976983589       -3.4825424936        2.5536382535
 H         2.7972824703       -2.6167501599        2.7997131727
 H         3.9646753480       -3.2996454365        4.0879956809
 H         6.6248369718       -0.9926495015        2.8894825556
 H         6.4570962766       -1.7778742941        4.4960342800
 H         6.3391906910       -2.5812188025        2.9221522434
 H         3.5935129978        1.2817690230        6.8282103102
 H         2.7301747333        1.4006846585        5.4084628566
 H         4.1889416727        5.4027408852        8.0002390749
 H         4.4483600578        6.4276681402        6.4370736841
 H         5.1000104815        4.6401993307        3.4408554126
 H         5.9334804865        4.9756759046        4.8901583804
 H         4.4981763222        6.0521067834        4.4380220858
 H         2.0207518283        3.2400304347        4.4506884786
 H         2.2100884435        4.9055460930        3.7584890164
 H         3.0450119508        3.3852959895        3.1144417794
 H         2.9948777087        7.9095498672        7.2452613086
 H         1.7588784259        6.9206115664        6.6643700709
 H         4.6430321742        4.9838746802        9.9241194764
 H         5.9113818036        5.9880998618       10.5024534391
 H         4.5654740778        5.5379992261       11.5663375469
 H         1.3277851141        9.2280223291        9.6701001451
 H         2.9308944872        9.4502002615        9.0933353829
 H         2.8213070413        9.6099900591       10.7364301387
 H         0.9507055038        7.3482062912       11.4603004417
 H         2.1929971615        6.0239052132       11.6702868610
 H         2.5333688545        7.7599587711       12.0651166002
 Na       -2.7780253161       -2.3275404764       -3.7928569248
