155

 C         1.5586763153       -4.5145145013       -4.2708654495
 C         0.0927145566       -4.3691114214       -4.4938866125
 C        -0.7033289192       -5.1211240745       -5.5794047002
 C        -2.2061423502       -4.3558707434       -5.8292628258
 C        -3.4822732675       -5.1862006789       -5.6434643751
 C         0.1069001615       -5.0123570891       -6.9697702021
 C        -0.9522474556       -6.6507762157       -5.0967448424
 O        -0.5076542459       -3.5908367499       -3.7563517023
 O        -2.3284853686       -3.2311063874       -6.2643204639
 C        -4.7349573063       -4.5210164831       -6.1744202813
 C        -5.9590468003       -5.1707381181       -5.7112261934
 C        -7.3479262375       -4.4107179330       -5.8579569752
 C        -7.5791554202       -3.6771460753       -4.5338155970
 C        -7.9710125166       -4.4563177880       -3.3158340007
 O        -5.9572159351       -6.1589406561       -5.0178751225
 O        -7.3318417093       -2.4670578990       -4.4263973819
 C        -7.3243362352       -3.3473571965       -6.9130452368
 C        -8.5457512018       -5.3222431978       -6.0882161953
 C        -6.8774409432       -4.4359668228       -2.1916234365
 C        -5.7651417239       -3.3736115828       -2.3213714635
 C        -5.6952069753       -2.2163606717       -1.3673106134
 C        -4.9106860541       -1.0156459232       -2.1825493969
 C        -5.8175859070       -0.0026644081       -2.9409779437
 C        -7.1791709742       -1.7244965550       -0.9040243095
 C        -4.8446320120       -2.7594871365       -0.1208475269
 O        -5.0234390110       -3.5822109545       -3.2756189280
 O        -3.7317843985       -0.9031952654       -2.0770137800
 C        -4.9444099569        1.0285448674       -3.7283445822
 C        -4.0432973917        0.2489848385       -4.7638465545
 C        -2.7679450953        1.0190470409       -5.3123042417
 C        -1.4789544654        0.6915566109       -4.5133962967
 C        -0.2321555067        1.7263788375       -4.5156917778
 O        -4.3887309105       -0.8573388786       -5.0166572495
 O        -1.2783123887       -0.5202876777       -4.2230023273
 C        -2.5108134502        0.5267246712       -6.7634150838
 C        -3.0415827141        2.5109876085       -5.3057122272
 C         0.7658522656        1.3341505507       -3.3809955199
 C         0.2548373551        1.8882814266       -1.9948743240
 C         1.2781058422        2.2217359776       -0.8425926184
 C         2.2521203517        0.9213417420       -0.6890958616
 C         3.2262016226        0.8620841808        0.4736901830
 C         2.0984591196        3.4763792679       -1.0676096636
 C         0.4696598223        2.5408685835        0.4930439647
 O        -0.9261014149        2.1398764547       -1.8105403148
 O         2.2752927196        0.1344718302       -1.5877898973
 C         3.3699755931       -0.5629781633        1.0419258053
 C         4.7050414813       -0.4947098962        1.9307160305
 C         4.6019967942       -1.3035129338        3.3160427819
 C         3.8628693891       -0.2971401236        4.2500321403
 C         4.5186729085        0.2853538036        5.5669378121
 O         5.6140604004        0.2170001649        1.5687302217
 O         2.7021765380       -0.0550978560        3.9758691152
 C         3.8179981499       -2.6659427482        3.2929918971
 C         6.0921038682       -1.6740143267        3.8052258751
 C         3.7998800326        1.5306352875        6.0401660961
 C         4.5377436636        2.7351253205        5.4629256394
 C         3.8998388005        4.1282932422        4.9966391353
 C         3.1810772812        4.5751140119        6.3081231722
 C         3.6751203897        5.8031976461        7.0965563318
 C         4.9807099427        5.0751066109        4.4052877426
 C         2.8058825987        3.8076173137        4.0396612428
 O         5.7899503289        2.6615368396        5.4471583545
 O         2.3198485899        3.8671414415        6.8860736614
 C         2.5672921765        6.8210715452        7.4574151040
 C         1.8784529309        6.6366971448        8.8090188492
 C         2.5157413529        7.3809255716       10.0423257815
 C         4.1455146559        7.1189019178       10.0556326289
 C         4.5319974243        5.9130997614       10.9208654668
 O         0.7857608287        6.0832210121        8.8551089954
 O         4.8521942045        7.7772438666        9.3460682950
 C         2.3158754576        8.8917108637        9.8205307961
 C         1.8710968141        6.8930060282       11.3434661061
 H         2.1434728592       -3.6866082241       -4.6959120257
 H         1.9104969444       -4.6504319550       -3.1440224149
 H         1.9349159876       -5.4017800098       -4.8578893123
 H        -3.3695278923       -6.2489033052       -6.0884134006
 H        -3.5592469959       -5.3356037398       -4.6117065774
 H         0.0282264063       -4.0203517357       -7.4293930847
 H        -0.4031182722       -5.6394091788       -7.7516150036
 H         1.1113106231       -5.3008428628       -6.8102649297
 H        -0.0014513692       -7.1280852533       -5.0103275057
 H        -1.4239517160       -6.6126475042       -4.1563460003
 H        -1.6088178029       -7.1342838710       -5.7110364550
 H        -4.7680005227       -3.5012679959       -5.7895461510
 H        -4.6151599309       -4.4210450818       -7.2821476218
 H        -8.9381823502       -3.9158503475       -3.0851333588
 H        -8.1837845407       -5.4875243580       -3.4884474432
 H        -7.4826245338       -3.6982797921       -7.9646196276
 H        -6.4099549408       -2.8051599618       -6.9855963870
 H        -8.1165987363       -2.5640002648       -6.6717928170
 H        -9.4824265975       -4.7409430874       -6.0672411054
 H        -8.4562827043       -5.8139811048       -7.1411444583
 H        -8.5808885404       -6.2253316119       -5.4369035229
 H        -6.4316700188       -5.3960003992       -2.3369553417
 H        -7.3681193461       -4.4676578952       -1.2432813189
 H        -6.3298536861       -0.5366310319       -3.8054085107
 H        -6.5240967155        0.4766379716       -2.2515879667
 H        -7.7321526309       -1.5935102305       -1.9166750437
 H        -7.1920723770       -0.7265250486       -0.5947013660
 H        -7.6340357291       -2.3975041958       -0.1578569371
 H        -4.8772727267       -1.9803372478        0.6857503546
 H        -5.1335705128       -3.6906523141        0.4734802103
 H        -3.8127826574       -2.8042696805       -0.4638779808
 H        -5.6050228677        1.7373772399       -4.2198531589
 H        -4.2782759880        1.5498943773       -3.0064847418
 H         0.2509372185        1.4559197701       -5.5018713120
 H        -0.6812623585        2.7147669679       -4.5086591817
 H        -3.4172082274        0.7987438064       -7.2987631830
 H        -2.4222278247       -0.5583310089       -6.8012461485
 H        -1.6564837142        0.9939931019       -7.1545624795
 H        -2.2898038207        3.1137699353       -5.8014958241
 H        -3.9756887925        2.6004490477       -5.8629524468
 H        -3.1271166816        3.0010392414       -4.3050678881
 H         1.6947452567        1.6976193479       -3.7584219760
 H         0.8776874460        0.2984847008       -3.2229228303
 H         4.2099727128        1.2353748269        0.0594513387
 H         2.8742323660        1.4778130300        1.3797691769
 H         1.3606251005        4.2410669107       -1.0364610351
 H         2.4350291901        3.5981396886       -2.1209876089
 H         3.0238712956        3.5873340446       -0.4207907185
 H         1.0434071941        2.3557475481        1.4032456092
 H         0.1832157317        3.5926609217        0.4640834279
 H        -0.4691403976        2.0220465017        0.5160092557
 H         2.5115693862       -0.6616234083        1.7262576019
 H         3.4456619823       -1.4372351525        0.3611118098
 H         4.3837878464       -0.5962690185        6.1614045860
 H         5.6081984984        0.5087450839        5.3707314155
 H         4.2236207063       -3.2837195589        2.4398621062
 H         2.8834828422       -2.2911018069        3.0384052876
 H         4.0133664924       -3.1773138202        4.2586389936
 H         6.6931760611       -0.7753317376        3.9754497561
 H         6.0084526524       -2.3428880859        4.6180107760
 H         6.6352398945       -2.3179333798        3.0538710963
 H         3.7377217691        1.5486216308        7.1302292991
 H         2.7613252105        1.5729788871        5.8040974521
 H         4.1858365463        5.3740928217        7.9074229429
 H         4.4236181320        6.3326810726        6.5434196962
 H         5.6609177715        4.4485781618        3.8250181160
 H         5.5978432669        5.3544088916        5.2932670389
 H         4.6431136473        5.9249508933        3.8913612497
 H         1.9815093542        3.1586417276        4.4249404972
 H         2.4307096056        4.7545473283        3.6800429089
 H         3.2044393054        3.1780574973        3.1932288283
 H         3.0082898974        7.8216476935        7.4531814603
 H         1.8432434186        6.9253956653        6.6527462400
 H         3.8367850744        5.0809061944       10.7877639647
 H         5.5910818257        5.6142992461       10.7258194155
 H         4.4251383846        6.1839790227       11.9367803268
 H         1.4477416185        9.2070950451       10.3824551638
 H         2.0802200835        9.3166419923        8.7900101673
 H         3.2193202325        9.4372963683        9.9305498908
 H         0.8199166011        7.1405953465       11.3789190638
 H         1.9657693107        5.8306235311       11.2238232058
 H         2.3396917532        7.3281719533       12.2421599624
 Na       -2.7405513368       -2.2310181505       -3.9462378205
