155

 C        -0.6187270844       -6.0780128948       -2.8291956405
 C        -0.7611082102       -4.9284878016       -3.8290020956
 C        -0.4725616066       -5.1721255006       -5.3782271472
 C        -1.7197881479       -4.5256634684       -6.1942398568
 C        -2.7518859291       -5.3828347260       -7.0506637425
 C         0.6992860696       -4.1892313852       -5.7651396199
 C        -0.1748569351       -6.6205486115       -5.8373371972
 O        -1.2622168178       -3.9031682061       -3.4315487390
 O        -1.8121716433       -3.2810654812       -6.3027712736
 C        -4.1540802734       -4.6938599001       -7.2285063186
 C        -5.3417039666       -5.6924501770       -7.0686887786
 C        -6.7307947130       -5.1832048601       -6.4938418542
 C        -6.6120846492       -4.7700324385       -4.9900085877
 C        -6.1891275437       -5.8492483658       -3.9736038634
 O        -5.1019523938       -6.8700595447       -7.0305046046
 O        -7.0013878607       -3.6930353715       -4.5987422696
 C        -7.2867041298       -3.8856505763       -7.3846587517
 C        -7.6864479604       -6.3224895299       -6.8081124942
 C        -5.8373781552       -5.3521365561       -2.5928722306
 C        -4.8578342473       -4.0172452992       -2.6095509069
 C        -5.0646231754       -2.7816448662       -1.5269126980
 C        -4.5479860896       -1.5495931817       -2.2925020013
 C        -5.5828873510       -0.8855106766       -3.3668057084
 C        -6.5099831194       -2.8312718741       -0.9805892536
 C        -4.0249657573       -3.0241516788       -0.3886407750
 O        -3.9746214077       -3.9228024997       -3.4608192042
 O        -3.3762861765       -1.1493725357       -2.2600480551
 C        -5.0057711751        0.3390044232       -4.0402246013
 C        -4.0087154177       -0.1102327548       -4.9924100635
 C        -2.7948792210        0.7832773250       -5.4121529287
 C        -1.7386001858        0.7758168215       -4.3015975138
 C        -1.2368504607        2.1510014201       -3.7162856386
 O        -3.9900448771       -1.2489727627       -5.4331018669
 O        -1.2332495240       -0.2456112836       -4.0041849075
 C        -2.3334852409        0.1558368860       -6.7597023452
 C        -3.2463571277        2.1997162344       -5.7236023545
 C         0.1010244405        1.9560962514       -2.9676472801
 C         0.6380792635        3.2168323831       -2.2970261375
 C         2.0620735780        3.1556881776       -1.7218871369
 C         2.0059375431        2.1533754466       -0.5113532287
 C         3.3329968833        1.6165917965        0.0222646757
 C         2.9684844156        2.6953536282       -2.8997060008
 C         2.4204992364        4.6719910158       -1.2785336682
 O        -0.0408378919        4.1936250238       -2.3952855186
 O         0.8947665027        1.9088474638       -0.0037197822
 C         3.2935846864        0.5364161530        1.0764162903
 C         4.4831329711        0.6747297580        2.0033093554
 C         4.5929565747       -0.2113878364        3.3224078417
 C         3.3342669301       -0.2404978520        4.0673231182
 C         3.0781554137        0.6705571651        5.3260660498
 O         5.3312524290        1.5344484778        1.8335645750
 O         2.4309239591       -0.9458782456        3.5539130719
 C         4.8445095734       -1.6766021514        2.7486640423
 C         5.8027211931        0.2007456056        4.0446389756
 C         3.1718321134        2.1648881647        4.9579421792
 C         4.1069721495        3.0466595502        5.8119956028
 C         3.6777482030        4.6383286111        5.9072719153
 C         2.7427418784        4.6522414735        7.1770411037
 C         3.1669353694        4.5417221885        8.6838764801
 C         5.0724215875        5.4340637387        6.0093355381
 C         2.8907462849        5.0487761876        4.6216948876
 O         5.0290273133        2.5997116809        6.3997463555
 O         1.5120880115        4.6055990689        7.0063747798
 C         3.4737345984        5.9726820637        9.1442320109
 C         2.1771728901        6.9434956549        9.2408536718
 C         1.6933148263        7.2715391788       10.6825901170
 C         1.5382686969        5.9259603052       11.5843519257
 C         0.6171922896        4.7407302954       11.1985782285
 O         1.7066831194        7.4642379532        8.2098502820
 O         2.3486622112        5.7808195370       12.5454783761
 C         2.8439333711        8.1810378606       11.2707480482
 C         0.3404550433        7.9828118770       10.4905877456
 H         0.3475312390       -6.5405418994       -2.7979844348
 H        -0.9687986719       -5.6286958780       -1.7861275646
 H        -1.2819519535       -6.9260436541       -3.1947731090
 H        -2.3897840129       -5.4765807521       -8.0059533029
 H        -2.8073669109       -6.3246315421       -6.4720689450
 H         0.5786337298       -3.1521701832       -5.4249117253
 H         0.8011834469       -4.0307277953       -6.8631275509
 H         1.5584775905       -4.6410156401       -5.2926011650
 H         0.8918447338       -6.8736616079       -5.7543999665
 H        -0.6730964600       -7.4062481135       -5.2347170699
 H        -0.3248293518       -6.7558538213       -6.9855368210
 H        -4.3089021091       -3.8909980092       -6.4975269618
 H        -4.2501909667       -4.2446578906       -8.2092085544
 H        -6.8987937698       -6.6286721344       -4.0145619997
 H        -5.2704703132       -6.3004365955       -4.4375154594
 H        -7.9710214332       -4.1859300599       -8.2009884982
 H        -6.5012294229       -3.2531961444       -7.8466310174
 H        -7.7813643563       -3.1627260804       -6.6895223765
 H        -8.5559498875       -6.4066246319       -6.1183235632
 H        -8.1922011449       -6.2617547036       -7.7529879790
 H        -7.0779832520       -7.2532366374       -6.9495256817
 H        -5.3895524349       -6.1915969465       -2.0047345166
 H        -6.6301975645       -4.9195209949       -1.9702952418
 H        -5.8230120835       -1.6092187050       -4.1102072685
 H        -6.5053357393       -0.6547168187       -2.7694949328
 H        -7.2249292686       -2.7021687559       -1.7472683359
 H        -6.6265682235       -2.0218561569       -0.1452553569
 H        -6.6563968644       -3.6890768443       -0.3768475974
 H        -3.9682435570       -2.2183894635        0.3716684657
 H        -4.3951508174       -3.9970554331        0.0388930768
 H        -3.0601125011       -3.0652371361       -0.9345000890
 H        -5.7776836647        0.9629183447       -4.5511521995
 H        -4.6582178308        1.1272289589       -3.3851388339
 H        -1.3321514728        2.8885970360       -4.4747174414
 H        -2.0354476388        2.4684486205       -2.9928616687
 H        -2.9938692331        0.4151087881       -7.4957207127
 H        -2.2601692064       -0.8636619525       -6.8401381971
 H        -1.3865200300        0.6498961431       -7.0310631350
 H        -2.4871650727        2.9495448290       -5.9589870362
 H        -3.7647835083        2.0101969712       -6.6964295515
 H        -3.7702635587        2.7232332214       -4.9231327993
 H         0.8361894661        1.5434987513       -3.6793736938
 H         0.0798389928        1.2982244988       -2.0477643341
 H         4.0427883274        1.4117640887       -0.7841290458
 H         3.7780342279        2.5509554471        0.3973263272
 H         2.5304183122        3.3016503218       -3.6903997542
 H         3.0189253601        1.5496143176       -3.0832773696
 H         4.0639963539        2.8746629654       -2.6643702631
 H         3.2427523562        5.0762234509       -1.8693996701
 H         1.4472782080        5.2598566407       -1.3384289618
 H         2.7351799096        4.6685641578       -0.2370705777
 H         2.4171152541        0.8421374731        1.6776525387
 H         3.2056387468       -0.5471130614        0.8353663684
 H         2.0925643693        0.3657414920        5.8270947179
 H         3.8398671746        0.4820583474        6.0846468662
 H         5.6324827558       -1.5977085302        1.9367616407
 H         3.9135787731       -2.2059713714        2.4956892991
 H         5.4742842541       -2.2241434295        3.5208241034
 H         5.6200991712        1.1756907545        4.4633407191
 H         6.0715248079       -0.3809657059        4.9180928605
 H         6.7721231838        0.2709941280        3.4193961009
 H         2.2127439437        2.5981252166        5.2147692708
 H         3.2523619509        2.3105662590        3.8677424591
 H         2.4001959813        4.1204493522        9.2425058697
 H         4.0709834670        3.9518196871        8.7960348426
 H         5.7893905615        5.1652463684        5.2744838472
 H         5.5179693975        5.1699328490        7.0081395754
 H         4.8454445017        6.4746156581        5.8797535402
 H         2.0921893240        4.3191172419        4.4457034873
 H         2.4851498002        6.1069592229        4.7195042210
 H         3.7302194893        5.0899675648        3.8055852133
 H         3.9383701348        5.7974524083       10.1539651193
 H         4.1834819297        6.3825541341        8.3836719526
 H         0.3016706555        4.2098166041       12.1640643639
 H        -0.2765041583        4.9062397422       10.6018956976
 H         1.1872581620        4.0220609488       10.6252188744
 H         2.6965025795        8.0198505224       12.3089439248
 H         2.6704623755        9.2730546217       11.0427502020
 H         3.8273039535        7.8349344171       10.9194127569
 H         0.5047831175        8.8590730671        9.8076274394
 H        -0.4603315241        7.4427369495        9.9452950401
 H        -0.1142080581        8.3890767649       11.3657836382
 Na       -2.4477851515       -2.2179938069       -4.3466385926
