155

 C        -2.4400255201      -10.4330327451        3.4114842500
 C        -1.1809003915       -9.9744327962        2.6621695142
 C        -0.3770111813       -8.5475100659        2.9362248034
 C        -1.1162941261       -7.5352343314        1.9493770360
 C        -0.5973797741       -7.3775977976        0.5294376677
 C        -0.5311699508       -8.0622204049        4.4101277571
 C         1.2554908260       -8.5639641722        2.7298693595
 O        -0.6968018208      -10.6067346540        1.7752743555
 O        -2.2223785851       -7.0305659287        2.2676733828
 C        -0.5938077629       -5.8191845591        0.1666015854
 C        -0.4335289360       -5.4162214331       -1.3125716522
 C        -0.8353082251       -3.9231351583       -1.6916321841
 C         0.4371057171       -3.2452289940       -1.3038510671
 C         1.5395212749       -3.1524198716       -2.3713217204
 O        -0.0109973544       -6.1791610041       -2.2235126882
 O         0.6407599464       -2.8345295247       -0.1737407652
 C        -1.1321948620       -3.9379405335       -3.1720975655
 C        -2.0185233211       -3.2791227665       -0.9831337384
 C         2.6095734609       -2.1679910020       -1.8742859133
 C         2.1546561478       -0.6480628804       -1.7154741082
 C         3.0188971173        0.3395598211       -0.8842572915
 C         3.6289496236        1.4110262276       -1.9755970287
 C         5.0950407790        1.2305077040       -2.3335100479
 C         2.0888891925        1.0879042165        0.1114529551
 C         4.1182334031       -0.3318880318       -0.0189297794
 O         1.1881106147       -0.2529697448       -2.3496494752
 O         3.0449377519        2.3763954308       -2.4145060959
 C         5.6303374634        2.0466278838       -3.4905353291
 C         5.1114145923        1.4332216259       -4.8294689387
 C         5.3707346537        2.1474621603       -6.1661033608
 C         4.0902277933        2.4537554042       -7.0828934150
 C         3.1144964977        1.4026947373       -7.3004847313
 O         4.4171197858        0.4546446094       -4.7254426818
 O         3.9178242519        3.5835630739       -7.4558701439
 C         6.1684428129        3.4731376958       -6.0804341034
 C         6.3077025861        1.1328552175       -6.9536825511
 C         1.6172764720        2.0613942754       -7.3984683079
 C         1.3647960721        2.7001484731       -6.0281573424
 C         0.6307250471        3.9939712181       -5.8511508863
 C        -0.7770173202        3.6938753643       -4.9916700081
 C        -1.6463125127        4.8516806879       -4.6696374082
 C         1.6016556336        4.9350656837       -5.0466383258
 C         0.1666201071        4.5987274344       -7.2412541567
 O         1.8474761319        2.2043815474       -5.0375020088
 O        -1.1280172460        2.5653777043       -4.6966344915
 C        -2.4145176168        4.8034977483       -3.3312768395
 C        -1.4198973955        4.6835285594       -2.1862592542
 C        -1.8370218710        4.1923609588       -0.7421771751
 C        -2.0642345362        2.5986498675       -0.7360054473
 C        -3.3636708081        1.7766988711       -0.2606118038
 O        -0.2516923094        4.6392110840       -2.5466440999
 O        -1.1787665178        1.9120945779       -1.2248718822
 C        -0.6588453755        4.4325034978        0.3162116092
 C        -3.0686901763        4.9686876012       -0.2285704986
 C        -3.6116939865        1.7276337258        1.2949029110
 C        -2.5886224269        2.1757719093        2.3076973548
 C        -2.9590958582        2.9081293603        3.6510648638
 C        -3.3016156655        1.8513303560        4.6788290469
 C        -3.2505108110        1.8830246453        6.2131498493
 C        -1.7528771793        3.7834610832        4.1370002201
 C        -4.0713068771        3.9677689890        3.3598308791
 O        -1.3914430378        1.9439607162        2.1367937918
 O        -3.8837158093        0.9040859079        4.1188183545
 C        -4.2978314134        1.0742953829        6.8519137530
 C        -3.7684909837        0.5217010406        8.1831557589
 C        -4.7933670994        0.1024643007        9.2728572262
 C        -5.1712405430        1.2574401744       10.2665260778
 C        -5.7518526894        0.9118923254       11.6663723338
 O        -2.5796032373        0.2295837686        8.3251132774
 O        -5.0288601951        2.4019791331        9.9700960712
 C        -6.1743120507       -0.4479283199        8.6403915041
 C        -4.2324465122       -1.0331307775       10.0826692742
 H        -2.9265511399      -11.1771546511        2.8847992589
 H        -1.8754002545      -10.8187720812        4.3516955734
 H        -3.0072826261       -9.5243685426        3.6610658945
 H         0.3919983601       -7.8250279968        0.3454210744
 H        -1.2733282353       -7.9527968175       -0.1382996546
 H        -1.4962633149       -7.7305144172        4.7655410005
 H        -0.0301737614       -7.0993519570        4.5746739311
 H        -0.1074543436       -8.7776405534        5.1354556867
 H         1.3740802149       -9.1747354808        1.9050240052
 H         1.6217306824       -7.6212619793        2.4109575707
 H         1.9041219873       -8.8509990369        3.6065589552
 H        -1.5907756569       -5.4971620284        0.3819847497
 H         0.1044185734       -5.2813542608        0.8073030134
 H         1.7316937288       -4.1361426323       -2.7642135247
 H         1.0467272787       -2.6973844417       -3.2413218277
 H        -1.1472535003       -2.9821479784       -3.6635764240
 H        -2.1503835887       -4.3218579058       -3.3427664824
 H        -0.4121260877       -4.7175845784       -3.6486118466
 H        -2.8777030515       -3.7189406882       -1.4000253765
 H        -1.9141433241       -3.3064248881        0.1415366469
 H        -2.0460411337       -2.2242986512       -1.2644186385
 H         3.4493062824       -2.0309980121       -2.5650820423
 H         3.1603045370       -2.6153234909       -0.9611303253
 H         5.7686155280        1.3965034245       -1.5083140619
 H         5.3877773013        0.2670921769       -2.6890181868
 H         1.4782503528        1.7986091558       -0.4859106922
 H         2.6300662269        1.8464507670        0.6806910143
 H         1.4349108477        0.4425390731        0.7617206934
 H         3.6600312529       -1.0907232984        0.6693346219
 H         4.9011250670       -0.7885138945       -0.5319219580
 H         4.6092226251        0.3805574071        0.6918174372
 H         5.4307388589        3.1172714470       -3.4535520759
 H         6.7052268015        2.0377708609       -3.6659813609
 H         3.3874993203        0.7138675157       -8.1455576159
 H         2.9511158996        0.7259276565       -6.3966810255
 H         5.6310925010        4.3056263199       -5.6306321789
 H         6.3518163658        3.8270115653       -7.1166227256
 H         7.2015273252        3.3371416090       -5.6653739933
 H         5.8129579975        0.9447838807       -7.9219951434
 H         7.3164537556        1.4984688973       -7.0274133052
 H         6.2746483660        0.1169618307       -6.5272958336
 H         0.9465799674        1.2600521302       -7.6537879068
 H         1.5596170424        2.8120373210       -8.2087693839
 H        -1.1566326673        5.8125705727       -4.7459947614
 H        -2.3417575995        4.8727027545       -5.4761573593
 H         1.5579181952        4.6988277279       -4.0194209826
 H         1.1777016297        5.8860314870       -5.0811666233
 H         2.5656020808        4.8128381927       -5.5297515733
 H        -0.4748618928        5.5126433185       -7.2067412279
 H         1.0975310926        4.8487069771       -7.7059717107
 H        -0.3862736714        3.9036117357       -7.8264898791
 H        -3.0396598309        5.6386794920       -3.0078726762
 H        -3.1527642508        3.9345972958       -3.2733253798
 H        -4.2149706854        2.3176942221       -0.6299462825
 H        -3.3771651423        0.7898319235       -0.7433630598
 H         0.2120855085        3.9553386686       -0.0268900366
 H        -0.9671557679        3.8895786976        1.2696126876
 H        -0.4638280486        5.4960001704        0.4733754573
 H        -3.2498223902        4.6748851720        0.8341342684
 H        -2.9752656689        6.0099373970       -0.3383011477
 H        -4.0793907806        4.7823531981       -0.7189974923
 H        -3.7210586608        0.6281438149        1.5841407043
 H        -4.6174113644        2.2289706220        1.4813860148
 H        -2.3157650154        1.5707323437        6.7216252206
 H        -3.3578879350        2.9301381447        6.5151559155
 H        -0.8437872138        3.2271861977        4.4150962196
 H        -2.1227978942        4.4191360125        4.9487167964
 H        -1.3320765826        4.6084662461        3.5063408945
 H        -4.3146533293        4.4096454105        4.3547114587
 H        -3.8241479953        4.8523169915        2.7796785886
 H        -5.0145488134        3.6401510491        2.8381692818
 H        -5.2724450724        1.6312764720        6.8868837913
 H        -4.6472519701        0.1273824949        6.3150561917
 H        -6.0897223486        1.8319961567       12.1855073959
 H        -6.5797146922        0.1913716611       11.6401538829
 H        -4.8487891146        0.4840724985       12.1673998237
 H        -6.5044829323       -1.3529445318        9.1735224185
 H        -5.9626444486       -0.7092610424        7.6077403323
 H        -6.9887887190        0.2832647097        8.8153805458
 H        -5.0340040639       -1.5560297130       10.6840935203
 H        -3.8486613705       -1.8233295872        9.4483692098
 H        -3.5342625700       -0.6812540185       10.8482557671
 Na        0.6209888196        2.1178701713       -2.7286559980
