155

 C        -0.5615945611       -6.2531223404       -3.1189356956
 C        -0.8243746476       -5.0160261223       -3.9180591024
 C        -0.5375938674       -5.1097590601       -5.4048586830
 C        -1.7593084699       -4.4149828661       -6.2842143788
 C        -2.7445054595       -5.4390691716       -6.8775485253
 C         0.7331836847       -4.2477268091       -5.4472839963
 C        -0.2647809293       -6.5093270949       -5.9081449697
 O        -1.2577923868       -3.9999320719       -3.3890626869
 O        -1.8786557515       -3.2385131083       -6.4071646838
 C        -4.0915638601       -4.7758513882       -7.2000090987
 C        -5.2513930088       -5.7801648567       -6.9762204113
 C        -6.6769969900       -5.2453275126       -6.6111113558
 C        -6.5805604688       -4.8018050251       -5.1309680859
 C        -5.9739644939       -5.8763301701       -4.1379888560
 O        -4.9553562589       -6.9627521984       -6.7716102667
 O        -6.9279644637       -3.6898889686       -4.7592958330
 C        -7.0903059367       -4.0992817904       -7.4575319333
 C        -7.7034745110       -6.4087716130       -6.6388877940
 C        -5.9180585620       -5.2453060716       -2.7313577734
 C        -4.8817999419       -3.9912963857       -2.8852050209
 C        -4.9448498873       -2.8990822255       -1.6557660065
 C        -4.6404794748       -1.5303781585       -2.2765976017
 C        -5.6927866500       -0.8223281527       -3.0530634246
 C        -6.4082950031       -2.7732875220       -1.0606015491
 C        -3.9401481120       -3.4049696282       -0.5196502764
 O        -4.1483590484       -3.9139644717       -3.8089761308
 O        -3.5207270586       -1.0864236536       -2.0897050072
 C        -5.1455623411        0.3353547741       -3.9303043999
 C        -4.0364130058       -0.1746862707       -4.9800938789
 C        -2.8485514758        0.7636495019       -5.4252783922
 C        -1.7345107376        0.7899337078       -4.3790069244
 C        -1.2277465401        2.0927962054       -3.7465591708
 O        -4.1081351475       -1.3109676990       -5.3903917852
 O        -1.1606069372       -0.2957190416       -4.1371975937
 C        -2.1625100773        0.2856937552       -6.7748252506
 C        -3.4773718695        2.1350032491       -5.7063205755
 C         0.0740755149        1.9969711449       -2.9062718323
 C         0.6537881842        3.3139243191       -2.4299511441
 C         2.1669356612        3.3231705406       -1.8691624640
 C         2.0966890309        2.1764026382       -0.6963388911
 C         3.4611404282        1.6281070885       -0.1640895278
 C         3.1628875398        2.7957660325       -3.0015534696
 C         2.5791397241        4.6849360848       -1.3123588624
 O        -0.1246202202        4.2545810458       -2.3339797802
 O         0.9945829173        1.8520197725       -0.3103852913
 C         3.2488162250        0.8005103614        1.1067288701
 C         4.5389746190        0.9066398682        2.0305411190
 C         4.5732711472       -0.1139987144        3.2996953736
 C         3.2472514328       -0.1264808176        4.1360755733
 C         3.3040523990        0.6250243776        5.4095445039
 O         5.3338447757        1.7599309436        1.8266960418
 O         2.2608195741       -0.4952233692        3.5872310498
 C         4.9486310197       -1.5865218183        2.6705021792
 C         5.7915722354        0.1735669031        4.1922051134
 C         3.0390426181        2.1355434913        5.0366317868
 C         4.0116728492        3.0348033402        5.8601603761
 C         3.6536286089        4.6074336099        5.9495068125
 C         2.6240265473        4.6266007711        7.1505947551
 C         3.3160437994        4.4578119509        8.4884660537
 C         4.8841391384        5.3715097658        6.2882945219
 C         2.9652277942        5.1049603079        4.6618733997
 O         4.9366214247        2.4955473030        6.4949988448
 O         1.4193442018        4.5206235069        6.9389448109
 C         3.5298291924        5.7455609924        9.3628876549
 C         2.4055741279        6.7945881219        9.3336380851
 C         1.7709381670        7.1933277031       10.7292788383
 C         1.3273139964        5.9426709143       11.6740240395
 C         0.2246203191        4.9972202076       10.9181934176
 O         2.0801972509        7.3470306091        8.3146176202
 O         1.7176948869        5.9284071098       12.7675777225
 C         2.8270642158        8.1397449026       11.4419893682
 C         0.4065057026        7.9827753839       10.6734607885
 H         0.5417056685       -6.4632281842       -3.0393064158
 H        -1.0216848146       -6.1461007663       -2.1593383396
 H        -0.9769451182       -7.0694128789       -3.6204143670
 H        -2.1421239302       -5.7120715804       -7.8061250803
 H        -2.8752393663       -6.2407239943       -6.1964019683
 H         0.4242061681       -3.2261899187       -5.3105605005
 H         1.1259558779       -4.2147256608       -6.4236078085
 H         1.4766310967       -4.6289898049       -4.7291293068
 H         0.4651024308       -7.1018840862       -5.2922587232
 H        -1.1332737613       -7.1376471880       -5.8724933219
 H         0.1611232070       -6.4354260429       -6.8563019075
 H        -4.2527171857       -4.0100724443       -6.4236250284
 H        -4.1476391349       -4.3622390182       -8.1972383189
 H        -6.6345484024       -6.7954852795       -4.2922625144
 H        -4.9912285405       -6.2045329471       -4.4469636739
 H        -7.3741745704       -4.5035213835       -8.4486157993
 H        -6.2866772200       -3.4482427569       -7.6466000570
 H        -7.9079082770       -3.5111986854       -7.1143733622
 H        -8.5971090797       -6.1377059190       -6.1823275279
 H        -8.0959098025       -6.6480595698       -7.6533086790
 H        -7.2608880287       -7.3003727555       -6.3085284813
 H        -5.3997146539       -5.9432051535       -2.0826671333
 H        -6.7985419154       -4.9747899807       -2.1676122353
 H        -6.1982686772       -1.6528603872       -3.6102390548
 H        -6.3964428044       -0.4639895484       -2.3384900401
 H        -7.1196070419       -2.5678396217       -1.9309190899
 H        -6.5055802509       -1.9730347726       -0.4178365162
 H        -6.6336149839       -3.5870635515       -0.3186033789
 H        -4.3908476134       -2.8716878622        0.3269524555
 H        -4.1612147426       -4.3694638113       -0.2248861549
 H        -2.9223965318       -3.1300464824       -0.7334749283
 H        -5.9509784371        0.9521139337       -4.2044850025
 H        -4.6915242223        1.0577960109       -3.2445167242
 H        -1.2595294449        2.8811839868       -4.5254859436
 H        -2.1063784799        2.3321496752       -3.1454703035
 H        -2.7739243855       -0.5727778261       -7.2391791707
 H        -1.2018090720       -0.2577872039       -6.6064411914
 H        -2.0369284035        1.1178912875       -7.4586695252
 H        -2.6412564562        2.7932030089       -6.0064448088
 H        -4.1543682019        2.0880529710       -6.5230668142
 H        -3.8496808765        2.6060397806       -4.7968228519
 H         0.8142977051        1.4152223278       -3.4666156979
 H        -0.0850808775        1.5711530458       -1.9530561981
 H         3.9703914501        1.0587548670       -0.9203239932
 H         4.1265983516        2.4693337905       -0.1269810736
 H         2.8508559500        3.2297764506       -3.9429511219
 H         3.1602431952        1.7839162810       -2.9334473544
 H         4.1797439915        3.0484372458       -2.8614651505
 H         2.7935279041        5.2934505649       -2.1924399458
 H         1.7009759959        5.1621926332       -0.8560589190
 H         3.4160347697        4.6475542856       -0.6356058215
 H         2.4478908769        1.2901144883        1.6332538912
 H         2.9451868565       -0.2061486306        0.9924829883
 H         2.4955693428        0.3140534378        6.0019348436
 H         4.1786545785        0.5042051174        6.0928151426
 H         5.7700400614       -1.3524134631        2.0188251134
 H         4.0743811190       -1.9570363022        2.0912033733
 H         5.2755069685       -2.3232451780        3.3911442405
 H         5.8552347787        1.2360603074        4.5529238282
 H         6.0034749863       -0.4256448254        5.1029547927
 H         6.6595881189       -0.0115838109        3.6084551098
 H         1.9428109028        2.2054530971        5.2007714422
 H         3.3523677712        2.4634759660        4.0334005679
 H         2.5979998915        3.7810775688        9.0185414079
 H         4.2169696955        3.8920896343        8.1805078215
 H         5.6440774541        5.0410543334        5.5516535169
 H         5.2621564860        5.2872633445        7.2529310724
 H         4.6627258544        6.4352002731        6.0345728272
 H         1.9416774949        4.7663520268        4.7222433285
 H         3.0072903817        6.1332622912        4.7361256160
 H         3.4761093183        4.8815627426        3.8118984216
 H         3.7131545532        5.5477584337       10.4035176752
 H         4.3573976256        6.2373877182        8.8795317737
 H        -0.7151901659        5.0382746999       11.3676965558
 H         0.1459617789        5.2689773442        9.8364326929
 H         0.5477944247        3.9548638274       10.9109207459
 H         3.4111627492        7.5808660841       12.1570404244
 H         2.3576297249        8.8746395466       12.0880439701
 H         3.4140794143        8.4899382826       10.6512740662
 H         0.3078468093        8.9162967529       10.1860017811
 H        -0.3699699476        7.4193176880       10.1786557513
 H         0.0571230679        8.1479830723       11.7039370871
 Na       -2.2485620276       -2.2655219855       -4.1678431738
