155

 C        -0.0996276516       -6.4065680478       -3.4504479601
 C        -0.3805030417       -4.9916275144       -3.9513220754
 C        -0.0903923334       -4.6625366663       -5.5205591261
 C        -1.4456907244       -4.4212909021       -6.2762199585
 C        -2.1672291030       -5.4509801683       -7.2193209786
 C         0.8247765153       -3.4057240015       -5.7017763038
 C         0.6145819475       -5.8519050033       -6.1494872315
 O        -0.9906513748       -4.2047827112       -3.1580510825
 O        -2.0108246183       -3.4051102955       -6.0440716361
 C        -3.6729833762       -5.0393576644       -7.3237452042
 C        -4.5850147873       -6.1731398113       -6.9040007446
 C        -6.2040522383       -6.0332725733       -7.0217345604
 C        -6.6957238893       -5.1507884625       -5.8891232319
 C        -6.7827763676       -5.7991839491       -4.4953166036
 O        -4.0083919785       -7.1286661070       -6.4668414351
 O        -6.8991910176       -3.9512960258       -6.0051351924
 C        -6.5067420202       -5.5229740571       -8.5212546372
 C        -6.8182107512       -7.5151743203       -6.9764976479
 C        -6.6875782829       -4.8515389609       -3.2641648982
 C        -5.3492434511       -4.0938599027       -3.1335088500
 C        -5.0862579542       -3.3260147434       -1.6891234826
 C        -4.3509461334       -2.0232301340       -2.0941550898
 C        -5.1998458443       -0.7397964239       -2.2648221215
 C        -6.3487347689       -3.0425800613       -0.8227089847
 C        -4.0126290295       -4.2296256078       -1.0468750300
 O        -4.4826719460       -4.0356709451       -4.0002806905
 O        -3.1283562528       -1.9355443685       -2.0257300840
 C        -4.5385066056        0.4122917307       -3.0115692334
 C        -4.0386083692       -0.1209429277       -4.3526670652
 C        -3.1078707989        0.8958989119       -5.2213085359
 C        -1.7164673870        0.7749949791       -4.6079522259
 C        -0.7114770663        1.8770864838       -4.8887451829
 O        -4.3156724735       -1.1750938954       -4.8938780170
 O        -1.4325473112       -0.2822022708       -4.1292517233
 C        -3.0007762276        0.1886640454       -6.6845776726
 C        -3.6337715249        2.3810133033       -5.6029540188
 C         0.6554652548        1.7618068395       -4.1939546815
 C         0.9398587376        3.1369630703       -3.4225951424
 C         2.3698593678        3.2078870306       -2.6126805997
 C         2.2813136086        2.2232393580       -1.4244243475
 C         2.6728389487        2.7486337059       -0.0438252841
 C         3.6250508334        2.7513279947       -3.4596806105
 C         2.5717874965        4.6652837909       -2.2229601108
 O         0.1185657812        3.9957211923       -3.3212867364
 O         1.8876102328        1.0875988666       -1.5766771723
 C         2.8844972718        1.7200393761        0.9937083172
 C         4.0720505338        2.0123857889        1.8591858628
 C         4.5613682676        0.8952456287        2.9134748586
 C         3.3121331613        0.6645635869        3.7926162904
 C         3.3594769716        0.7389419114        5.3559961743
 O         4.4491619616        3.1813111386        2.0024214115
 O         2.3649508927        0.0381583351        3.3416236319
 C         4.9900719537       -0.3295152026        2.1338622337
 C         5.7251132400        1.6423700317        3.7524740258
 C         3.2113873271        2.2672588163        5.7194855406
 C         4.1367146471        2.7664133596        6.8516201851
 C         3.9545215251        4.2072050748        7.3724269474
 C         2.6266780250        4.1013724249        8.3460541605
 C         2.7693843108        3.6707029897        9.8083056478
 C         5.2016472906        4.7496716778        8.1712937513
 C         3.5964234729        5.2302849835        6.3034165216
 O         4.8078073302        2.0260503478        7.5129008867
 O         1.5630549730        4.3569305697        7.8153939684
 C         2.7255507710        4.8525943923       10.9160158762
 C         2.0708090468        6.1075410138       10.4261609388
 C         1.2464918539        7.0820393884       11.3112038084
 C        -0.3123829128        7.0758781333       10.7405789131
 C        -0.6544784656        7.9962777487        9.5326584317
 O         2.3170907134        6.4491863622        9.2479630679
 O        -1.0145996971        6.1952253489       11.1189818452
 C         1.3004263206        6.4738657488       12.7938135999
 C         1.9099475058        8.4478965996       11.3288617503
 H         0.9355364045       -6.5516160998       -3.2026034094
 H        -0.7616094144       -6.4938906558       -2.6040914026
 H        -0.1935661752       -7.1299085232       -4.2489175555
 H        -1.6098068068       -5.3680814435       -8.1182701546
 H        -2.1714433401       -6.4580469152       -6.8311024848
 H         0.1703941046       -2.5879840607       -5.9621738830
 H         1.3226958296       -3.4897681844       -6.6179082487
 H         1.6330366423       -3.3043266213       -4.9360679512
 H         1.5154925958       -6.1141325810       -5.4893199596
 H        -0.0103445581       -6.7574588807       -6.2087855799
 H         1.0999248378       -5.6110785614       -7.1506783280
 H        -3.8961170112       -4.1734936629       -6.8170469358
 H        -3.9128593568       -4.7599443731       -8.4004572354
 H        -7.8108552989       -6.1886017883       -4.5782814776
 H        -6.2019216426       -6.7364109834       -4.3668942391
 H        -5.7372118823       -5.8335741472       -9.3389876890
 H        -6.6282024902       -4.4556543416       -8.5466841086
 H        -7.4114937408       -6.0642577034       -8.8540663056
 H        -7.8403150035       -7.4948469942       -7.3157066223
 H        -6.4535479701       -8.1287355725       -7.8835743378
 H        -6.5952300836       -8.0343553479       -6.0387344407
 H        -6.6761395571       -5.5062403712       -2.4128635314
 H        -7.5242794131       -4.1177147974       -3.1987270245
 H        -6.0911783179       -0.9273202958       -2.8739745384
 H        -5.6534547752       -0.3921077056       -1.3281953447
 H        -7.1567131971       -2.7342822158       -1.4441000364
 H        -6.2054812044       -2.1944366690       -0.0526741137
 H        -6.5752024273       -3.9325740854       -0.2252502592
 H        -3.6238243308       -3.6828488584       -0.1136169557
 H        -4.3082111970       -5.1589403626       -0.5815291129
 H        -3.2854584260       -4.2789416341       -1.8950193587
 H        -5.3190411389        1.1714891897       -3.1296058789
 H        -3.6347917499        0.7504930849       -2.5537557533
 H        -0.6842199812        1.7764781833       -6.0131622803
 H        -1.2460507879        2.8599274650       -4.6847668357
 H        -3.8342684493        0.4565551321       -7.3047790885
 H        -2.8759429248       -0.8492746714       -6.5319491912
 H        -2.0490851547        0.4723990208       -7.1804093167
 H        -2.8882209433        2.8191942337       -6.2994074915
 H        -4.5819403780        2.4212386586       -6.0774272536
 H        -3.7886857233        2.9766847440       -4.7108099187
 H         1.2509835452        1.6375804401       -5.0882448691
 H         0.9447483929        0.9559245574       -3.5610732643
 H         3.6124630211        3.3028222240       -0.2531804068
 H         1.8832199379        3.4919399649        0.1118695332
 H         3.8892005427        3.3550040153       -4.3484834376
 H         3.4883284458        1.6931427510       -3.7049344619
 H         4.6602676564        2.9213401476       -2.9823820443
 H         2.2962182722        5.2043698852       -3.1393563094
 H         1.7930645132        5.0456973294       -1.4628876568
 H         3.5697653183        4.8343346041       -1.9226497353
 H         1.9997553565        1.7087447005        1.6641051703
 H         2.9891500436        0.7147817167        0.5340853064
 H         2.5980776582        0.0381604902        5.8430235834
 H         4.3854780691        0.5282015489        5.7377322280
 H         5.8368361016       -0.1760127230        1.4805442439
 H         4.1709229116       -0.7508845039        1.4808106018
 H         5.1224256285       -1.1604565107        2.7975280270
 H         5.4019050845        2.5551625956        4.1956728216
 H         6.1656819557        1.0631999532        4.5742683722
 H         6.5967287159        1.8538837109        3.0817523763
 H         2.2506169099        2.4240339634        6.1084764951
 H         3.2459159503        2.9032194561        4.8180473589
 H         1.8500740404        3.0894114607       10.0465371228
 H         3.6231648365        3.0974144487       10.0473464355
 H         6.0497992787        4.8919020101        7.4359056227
 H         5.5153669546        4.3256024909        9.0679147856
 H         4.9388086774        5.8150779803        8.4090247259
 H         2.5603855225        5.2574829403        6.0290263109
 H         3.6978853193        6.2643125637        6.6870514240
 H         4.3287001206        5.1124806757        5.4400389788
 H         2.1580998139        4.2099769252       11.6133450927
 H         3.7118106738        5.2037594977       11.1955102703
 H        -1.1447235444        8.8977044639        9.9289000354
 H         0.1980239113        8.3241510857        8.8760864509
 H        -1.3550018870        7.5596415619        8.8673236132
 H         0.8295902206        5.5399991091       12.9695310269
 H         1.0121584551        7.3318680804       13.5114093338
 H         2.3499865435        6.2165224458       13.0371949030
 H         2.6286247673        8.5854538019       12.1097291968
 H         2.4354360538        8.7221934420       10.4174938021
 H         1.2362401041        9.2900403058       11.5566176585
 Na       -2.3711496697       -2.4560524196       -3.9909542169
