155

 C         0.7579512676       -5.7132663425       -3.9301013232
 C         0.0754827012       -4.4241327040       -4.4576966225
 C         0.2922753587       -4.0065724849       -5.9740713614
 C        -1.1757992960       -4.1531394787       -6.6745642014
 C        -1.3624885918       -5.2878228978       -7.7569830183
 C         0.7224610333       -2.5042735080       -5.8605345178
 C         1.5167244811       -4.7887533232       -6.5131354673
 O        -0.7379584890       -3.8405076750       -3.7749357887
 O        -2.0785361486       -3.4858091672       -6.2635507221
 C        -2.7858216661       -5.5084625409       -8.0477744530
 C        -3.5168363845       -6.5360741525       -7.1115729329
 C        -5.0573445604       -6.6720958896       -7.0632681475
 C        -5.6796638353       -5.8987648661       -5.7742332986
 C        -5.3491840874       -6.4711986865       -4.3964069182
 O        -2.7717463745       -7.3476116868       -6.5494551415
 O        -6.3410517092       -4.8958968955       -5.8979598594
 C        -5.7286643373       -6.1350698578       -8.3171942330
 C        -5.3664005728       -8.2670191785       -6.9110660184
 C        -5.8343797144       -5.5229200052       -3.2233652929
 C        -5.1421802765       -4.2005165377       -3.0646690857
 C        -5.5547089440       -3.3436438804       -1.7498006502
 C        -4.8689526482       -1.9405119833       -2.0085527709
 C        -5.8523839970       -0.6757561277       -2.3653207975
 C        -7.0160045873       -3.2869973018       -1.3186920283
 C        -4.8884372657       -4.0240925490       -0.5318854928
 O        -4.2938527455       -3.7955844287       -3.8254569081
 O        -3.6321367614       -1.8176859385       -2.0552432133
 C        -5.0452036248        0.3386532359       -3.1394287797
 C        -4.3886890990       -0.0408219399       -4.4289183129
 C        -3.5045075744        0.8863662291       -5.3157600536
 C        -2.0976454997        0.7273544016       -4.8325562104
 C        -1.2822498065        1.9334218030       -4.5280759466
 O        -4.6776344449       -1.1761903685       -4.8206908242
 O        -1.5104941018       -0.3764720829       -4.7685480623
 C        -3.5120056648        0.3153898189       -6.7881497326
 C        -4.1358173070        2.3312648532       -5.3154281621
 C         0.1678747090        1.5805863780       -4.1586628868
 C         1.0135961633        2.7740493343       -3.6061493145
 C         2.6499234435        2.6115134781       -3.5957736335
 C         2.8716084364        1.9177928302       -2.2707942765
 C         3.0880326477        2.7882904426       -1.0065119824
 C         3.3311973537        1.7427039321       -4.7717096051
 C         3.2988313318        4.0328904170       -3.7371823983
 O         0.6190031551        3.8048725102       -3.1342012770
 O         2.7491611448        0.7127451044       -2.2852753841
 C         3.5944549518        1.8995111023        0.2058148173
 C         3.6301104881        2.7632850018        1.6627196662
 C         4.2841498609        2.1024458276        2.9445894264
 C         3.1990902472        1.6072056846        3.8887374807
 C         3.4774493146        1.2329230034        5.3258011068
 O         3.1789030215        3.8553392361        1.7622028573
 O         2.0550799437        1.4604476363        3.4909727387
 C         5.0922482414        0.8755550392        2.5917787919
 C         5.1806677123        3.2303105036        3.5763069051
 C         3.3862771496        2.4004654598        6.2338503983
 C         3.8529643911        2.0866560920        7.6661524377
 C         4.1203698250        3.3676937466        8.6765082481
 C         2.6810230036        3.9837145759        8.8989519695
 C         2.2591727499        4.2053848822       10.3989351413
 C         4.8581451461        2.9233725431        9.9190317935
 C         4.8529712795        4.4636989659        7.8580239938
 O         4.2687095446        0.9221607240        7.9291475966
 O         2.0034193155        4.3207831031        7.9315797328
 C         0.9099931414        4.8287800111       10.6112433838
 C         0.9220418482        5.9246173102       11.6931353607
 C        -0.3136253665        6.8747017172       11.6905285381
 C        -0.1191204021        7.7184531224       10.4095254594
 C         1.1072828516        8.5004215052       10.0942912237
 O         1.8788868094        6.0769187066       12.4245089482
 O        -1.1138561667        7.9638105698        9.7426513584
 C        -1.6199555957        6.0039028300       11.7002618122
 C        -0.2160286041        7.7362390773       12.9962499687
 H         1.8089021140       -5.5317856963       -3.7307418741
 H         0.1466719954       -5.8366128216       -2.9466841888
 H         0.8052131461       -6.5699122961       -4.6200340723
 H        -0.7676688087       -5.0891504609       -8.6721127705
 H        -0.8692510003       -6.2507245434       -7.3016288856
 H        -0.1083316193       -1.8523961099       -5.5177981132
 H         0.9297624779       -2.1829303333       -6.8556957605
 H         1.6906772329       -2.3649730070       -5.2669318358
 H         2.3316459801       -4.4447386818       -5.9850078869
 H         1.4765158710       -5.8456745972       -6.2997102718
 H         1.6305779005       -4.6290427120       -7.5774310099
 H        -3.2148175064       -4.5188624068       -8.0911690000
 H        -3.0128829176       -5.9977830217       -9.0793606036
 H        -5.7610098999       -7.4384710374       -4.2592447081
 H        -4.2860531890       -6.6638283326       -4.2549495164
 H        -5.5468780035       -6.7248297339       -9.1971570037
 H        -5.4164169654       -5.0876753929       -8.5532562404
 H        -6.7942940632       -6.0087688746       -8.1104394964
 H        -6.3559340304       -8.4655500990       -7.3455212719
 H        -4.6118160092       -8.8425238808       -7.3683081158
 H        -5.4510497441       -8.6473114477       -5.8907752159
 H        -5.5859083926       -5.9611195916       -2.2429710794
 H        -6.9034097863       -5.4071255255       -3.2212862173
 H        -6.7178936219       -1.0758203758       -2.8678034401
 H        -6.1708282995       -0.0472453066       -1.4913782074
 H        -7.6669718182       -2.7475973728       -2.0454872608
 H        -7.0505502708       -3.0013924995       -0.3066881451
 H        -7.3806532450       -4.2785520123       -1.4743871366
 H        -5.0280514395       -3.3692278221        0.3803474916
 H        -5.1285830234       -5.0368332836       -0.2601600149
 H        -3.8229899782       -4.1002846255       -0.7955954677
 H        -5.7346717368        1.2347631526       -3.1757243326
 H        -4.2076884403        0.5771504766       -2.4829870082
 H        -1.3489882509        2.5230455168       -5.3905466643
 H        -1.7508467528        2.5971197841       -3.7183666868
 H        -4.3308536273        0.5384902686       -7.3878935607
 H        -3.3919509973       -0.7092186809       -7.0053938099
 H        -2.6888427738        0.8065583328       -7.2743720999
 H        -3.7442387476        2.9493940311       -6.1852240987
 H        -5.1635449305        2.0881482745       -5.5304474805
 H        -3.9129360283        3.0849913243       -4.5577756256
 H         0.5558569818        1.1808985908       -5.1476836828
 H         0.2316729713        0.6202011475       -3.6286953116
 H         3.8859343268        3.4159421594       -1.2988330177
 H         2.3833366782        3.4852905086       -0.5721758341
 H         2.8875864766        1.8831828860       -5.7215016220
 H         3.1458834312        0.6305323073       -4.5495919761
 H         4.4033860263        1.8654266049       -4.5967639291
 H         2.9210720741        4.4607271786       -4.6555634607
 H         3.0833315278        4.7536290467       -2.8569487714
 H         4.3540499936        3.9686477562       -3.8112703946
 H         3.0552561357        1.0085985415        0.3242147882
 H         4.6531862891        1.5713046409        0.0817048954
 H         2.7337080535        0.4582981048        5.6122895202
 H         4.4645470972        0.8037000652        5.5903569750
 H         5.8936076895        0.9330899122        1.8655289916
 H         4.4454092369        0.0556350223        2.2805903160
 H         5.6451909741        0.5643953177        3.4733805431
 H         4.3981798999        3.9734026910        3.9211671383
 H         5.7986988043        2.8337760008        4.3857304905
 H         5.6737266748        3.6579523432        2.6429329775
 H         2.3351527944        2.7198556107        6.3571379164
 H         4.0299152422        3.2071947026        5.8863168324
 H         2.1766310858        3.2542750982       10.9409222213
 H         2.9550379966        4.9326783266       10.7904380998
 H         5.8222572309        2.3987545048        9.6785222063
 H         4.3283433750        2.2700965347       10.5820724361
 H         5.1621048704        3.8336659527       10.4793186685
 H         4.2318714143        4.8565459376        6.9828094525
 H         5.3128789920        5.2621195357        8.5137328185
 H         5.7151029436        4.0104723787        7.3258547262
 H         0.6206191880        5.3636624541        9.7035074840
 H         0.1807263048        4.0748009315       10.8882848862
 H         2.0466813966        8.0766535055       10.5762351721
 H         1.2120992660        8.5310423833        9.0674900692
 H         1.0811456880        9.5133861560       10.5197466697
 H        -1.6187512242        5.4317628880       10.8063661485
 H        -2.5344384974        6.5703110510       11.6426462044
 H        -1.5771956612        5.3465544697       12.5723959097
 H        -0.2984313317        7.0515490685       13.8254292355
 H         0.8263520104        8.1422878056       13.0094372338
 H        -0.8237113398        8.6313660267       12.9465732121
 Na       -2.5291133838       -2.4132475142       -4.1507283226
