155

 C         0.5397707599       -5.5835871840       -3.7483990542
 C        -0.0892224942       -4.3228913150       -4.3671474136
 C         0.1723897345       -3.8978829399       -5.8976229369
 C        -1.2640060065       -4.0906577681       -6.5401575703
 C        -1.4833683606       -5.0285935610       -7.6391049688
 C         0.4172320654       -2.3450117216       -5.8715783824
 C         1.2449108151       -4.7455534199       -6.6017578479
 O        -0.7323760766       -3.5956696546       -3.7257820319
 O        -2.2472434970       -3.4434895788       -6.1710787448
 C        -3.0496524645       -5.3683417902       -7.8593022782
 C        -3.3123111838       -6.5482237493       -6.9156900411
 C        -4.7600245486       -7.2085769807       -7.0024200952
 C        -5.5887977237       -6.6314359837       -5.8055616807
 C        -5.1485898870       -6.9531873580       -4.3685937489
 O        -2.4756953697       -6.9157558657       -6.1093292904
 O        -6.5626739743       -5.9006604039       -5.9389151944
 C        -5.5830934332       -6.8573311546       -8.2706906578
 C        -4.6182357366       -8.7144370369       -6.9117095610
 C        -5.7085377052       -6.0498304191       -3.3094731521
 C        -4.9439583764       -4.7043561985       -3.2198115826
 C        -5.1802984075       -3.8297720579       -1.8993316180
 C        -4.8984363853       -2.3957565516       -2.5903678260
 C        -5.7624610486       -1.7600120775       -3.5544423103
 C        -6.6435348698       -4.0468461021       -1.3591194138
 C        -4.2469983537       -4.2070912375       -0.7733280264
 O        -4.1760112792       -4.2621337235       -4.0703852980
 O        -3.9149277286       -1.8320346696       -2.2039392314
 C        -5.4271172408       -0.1903129402       -3.7639250285
 C        -4.2748391713       -0.0834883050       -4.9033438517
 C        -3.6002147892        1.3880001518       -5.0872270195
 C        -2.0419009920        1.1652681498       -4.5041692056
 C        -1.0407831497        2.3598385405       -4.5549249716
 O        -3.8538297049       -1.0451059614       -5.5008269536
 O        -1.7964127991        0.1018088380       -3.9336271492
 C        -3.4721647894        1.7557173553       -6.5542639236
 C        -4.1696063545        2.5230392344       -4.1794779378
 C         0.4001742449        1.9105657086       -4.3179515047
 C         1.3656035961        3.1080640041       -4.0473662081
 C         2.8752327659        2.7818775274       -3.7297461511
 C         2.8794772946        2.0445632241       -2.1791134718
 C         3.0336773406        2.8983267265       -0.9466868085
 C         3.4869095527        1.6843293251       -4.6358012830
 C         3.6936543674        4.0980068577       -3.6750242819
 O         0.8984560947        4.2041543455       -3.9104165794
 O         2.7741946608        0.8663561277       -2.0786758054
 C         3.0589883981        2.2043902683        0.4247093336
 C         4.1020351893        3.0420656621        1.3419343362
 C         4.4318524350        2.3581700520        2.7006783813
 C         3.1804979217        2.4709111718        3.7534109776
 C         3.5480492509        1.9185295237        5.1251621143
 O         4.4580202678        4.1112531991        0.9365152285
 O         2.0829135050        2.8594429327        3.4653888776
 C         4.7885493973        0.7948350069        2.5016654748
 C         5.5842345442        3.1250657473        3.3838315181
 C         3.5221123986        2.9161466943        6.2477791006
 C         3.7034974364        2.1872727103        7.6801290369
 C         3.8375881823        2.9613369178        9.0204876181
 C         2.5336731650        3.9317182542        9.2597488726
 C         1.8765208247        3.9509380867       10.7289151910
 C         3.9724791588        1.9501500018       10.1991491422
 C         5.0337370036        3.8500428479        9.0405306801
 O         3.6696972995        0.9541443019        7.8170381710
 O         2.2039675655        4.7197019159        8.3710476455
 C         0.4909850332        4.5337708101       10.6559111163
 C         0.1532199685        5.5756613936       11.7269766973
 C        -0.8898336831        6.7163434549       11.4287128288
 C        -0.0005830011        7.7989760558       10.7011267467
 C         0.8918360133        8.7095588584       11.5086375728
 O         1.0162779762        5.8400692523       12.5489115291
 O        -0.0945694590        7.9290224016        9.4960380918
 C        -2.0771414902        6.1557297943       10.5734570758
 C        -1.4015094531        7.4163777037       12.7278984035
 H         0.9974595635       -5.2963588553       -2.8118068687
 H        -0.3683531908       -6.2766609287       -3.5442729861
 H         1.1052032545       -6.2275164022       -4.4597938443
 H        -1.1911932433       -4.5230395202       -8.6349469452
 H        -1.0060139583       -6.0087135313       -7.5081117107
 H        -0.4996001429       -1.7476095919       -5.6612400323
 H         0.7368624650       -2.1087764161       -6.8745946907
 H         1.2396204537       -2.0459116004       -5.1952950882
 H         2.1174876480       -4.4232705436       -6.1747034164
 H         1.1065550760       -5.7867128899       -6.3268494701
 H         1.2359860770       -4.7278079624       -7.7062726167
 H        -3.7284056216       -4.4372799218       -7.8342829096
 H        -3.1145530952       -5.8923666725       -8.8201774244
 H        -5.3293997619       -8.0112376803       -4.2050639023
 H        -4.1003064150       -6.8510762196       -4.2815893191
 H        -5.1356902952       -7.0895193499       -9.2711929403
 H        -5.7712416442       -5.7564235510       -8.2546229213
 H        -6.5925860856       -7.3209873705       -8.2663147957
 H        -5.4946086379       -9.2325469303       -7.2564499620
 H        -3.8917672309       -9.1901930181       -7.5923904772
 H        -4.3731936416       -9.0303549395       -5.9031288745
 H        -5.6222301892       -6.3960175588       -2.2754095502
 H        -6.7304341457       -5.7274773274       -3.5080076187
 H        -5.5732169354       -2.2501278954       -4.5327437647
 H        -6.7973449772       -2.0248410247       -3.4082514391
 H        -7.4522383464       -3.7065419997       -2.0414649479
 H        -6.7825034883       -3.4670414560       -0.4574665394
 H        -6.8698095461       -5.0494654488       -1.0806947383
 H        -4.3824410322       -3.6722075485        0.2070861224
 H        -4.4561264579       -5.2478477894       -0.4669125243
 H        -3.1480230372       -4.0808158640       -0.9227482569
 H        -6.3769731194        0.1581236798       -4.1327069795
 H        -5.2316326296        0.3104283603       -2.7653136942
 H        -1.0148706921        2.9344352212       -5.5555735638
 H        -1.3847669779        3.1077985031       -3.7881716467
 H        -4.4093440911        1.8963307077       -6.9661616315
 H        -2.9846028672        0.9816486376       -7.0581653737
 H        -2.8827435675        2.6436898246       -6.8371283459
 H        -3.6586801862        3.4163678184       -4.5408433061
 H        -5.2650734369        2.5382900315       -4.1565526514
 H        -4.0253321421        2.2795191008       -3.1159801772
 H         0.8302044561        1.3837839688       -5.1400559659
 H         0.3107868709        1.2711466342       -3.3939403321
 H         4.0017034580        3.4119962646       -1.0682290632
 H         2.4380450351        3.7653036587       -0.9109397336
 H         3.5363867510        2.0241178483       -5.6549642818
 H         2.8814223540        0.7252790708       -4.4138611967
 H         4.5750054942        1.3939408793       -4.4224560630
 H         3.8217337683        4.6005738867       -4.6212214724
 H         3.0433195609        4.8933436619       -3.1232483746
 H         4.6118348105        3.9647607061       -3.1870083547
 H         2.1421578286        2.0075225506        0.9729873469
 H         3.5187503883        1.2693968125        0.2097414307
 H         2.8565040540        1.0342930427        5.2832634644
 H         4.5852101464        1.5297037671        5.0364463917
 H         5.5189537313        0.6820271291        1.7319581601
 H         3.9060044085        0.1460541528        2.2600281956
 H         5.2240043582        0.4088340306        3.3980531862
 H         5.0122133575        4.0346762817        3.6904499444
 H         5.9296184129        2.5418313844        4.2382676470
 H         6.4539625446        3.2610119816        2.6275314415
 H         2.6686890150        3.5838077050        6.4410650610
 H         4.3453986637        3.6133080890        6.1277390135
 H         2.1257523708        3.1633528045       11.3794043180
 H         2.4150642012        4.7550911898       11.3234185665
 H         4.9319008041        1.4189189669       10.0785314410
 H         3.2119074674        1.2267095960       10.1416902424
 H         3.9159768047        2.4998776605       11.1613046423
 H         5.3994874454        4.2519592803        8.0737498443
 H         5.0256791179        4.6800196457        9.7854147533
 H         5.7926767135        3.1649689981        9.4279498760
 H         0.2906908399        5.0246015580        9.7019191003
 H        -0.2013834111        3.6820038147       10.7039949709
 H         1.7228474501        9.2141530225       10.9308947842
 H         0.2305454997        9.5084610816       11.7262662036
 H         1.1928351120        8.2961855124       12.4702263379
 H        -1.7681337981        5.9139368522        9.5792413425
 H        -2.9593968910        6.8834129147       10.5895881973
 H        -2.2804843674        5.2073409613       11.0352519629
 H        -2.0245210534        6.8121055116       13.3639669293
 H        -0.4792032414        7.6719423068       13.1844635042
 H        -2.0938278377        8.2039027462       12.3465892706
 Na       -2.5119361169       -2.2731632124       -4.1442143079
