155

 C         0.3898001826       -5.8899088046       -3.9977696352
 C        -0.2266892553       -4.6660114987       -4.5508126884
 C         0.0860518772       -4.0113380332       -6.0095462986
 C        -1.1294268545       -4.1455300692       -6.9446930102
 C        -1.0215743554       -5.2816845534       -8.1128014579
 C         0.2974529595       -2.5218737230       -5.7135851273
 C         1.3511929396       -4.5960502898       -6.7745810300
 O        -1.0411584759       -4.1219735978       -3.8254323581
 O        -2.0779411661       -3.4307487205       -6.8684158340
 C        -2.4062936707       -6.0711244144       -8.2563629514
 C        -2.7956343209       -6.6816109050       -6.8638274586
 C        -4.1335782697       -7.5692022168       -6.8095914760
 C        -5.0191295403       -6.8543166929       -5.6473924450
 C        -4.6199776763       -7.0217614823       -4.1477265844
 O        -2.1590686730       -6.6439098425       -5.8436426295
 O        -5.8998503322       -6.0280815552       -5.9220417353
 C        -4.9863940755       -7.5693790093       -8.1297047257
 C        -3.9830425501       -9.0700825533       -6.3552175316
 C        -5.2367810654       -6.0258134140       -3.2548843449
 C        -4.6931095265       -4.5562872851       -3.3646854758
 C        -5.2484182197       -3.4755204885       -2.2982759963
 C        -5.0473548677       -2.0679775251       -2.8531916196
 C        -6.2919889820       -1.4283678607       -3.5500920870
 C        -6.6679109345       -3.8188645680       -1.9765216788
 C        -4.0937105463       -3.6056430270       -1.2981137450
 O        -3.7010423132       -4.3590576346       -4.0357119257
 O        -3.9080556776       -1.5907971174       -2.7329588424
 C        -5.9850611476        0.0517230594       -3.9675210902
 C        -4.6476076424        0.0466556607       -4.6312178226
 C        -3.5931078021        1.1813677799       -4.2010224465
 C        -2.0521379979        0.7635627056       -3.9575941321
 C        -1.0766592225        1.9034569096       -3.6785089786
 O        -4.3881199013       -0.6995549501       -5.6001298719
 O        -1.7063415691       -0.3625599252       -4.1832530683
 C        -3.4705673445        2.1084938728       -5.5067890620
 C        -4.1071207930        2.0770637805       -3.0715616261
 C         0.4303253343        1.5859655263       -3.6973307951
 C         1.2033326217        2.9694939626       -3.6417287413
 C         2.6542966922        3.0418902265       -3.1597090109
 C         2.7674425834        2.6586022712       -1.7111478165
 C         3.4396786949        3.6658088908       -0.7775298700
 C         3.3812733381        1.9184500191       -3.8529207359
 C         3.2423551005        4.4598118819       -3.6497374445
 O         0.6054813016        3.9785831895       -3.8779314641
 O         2.2957053303        1.6628129123       -1.2743130005
 C         3.3882308114        3.3138850150        0.7483846154
 C         4.7260863983        3.1020905952        1.3912557390
 C         4.6540290728        2.4727841188        2.8320635497
 C         3.4850456339        3.0531855823        3.7167559625
 C         3.0442172636        2.1550580690        4.9650611589
 O         5.7920935564        3.4262079479        0.9462849195
 O         3.1033062535        4.1499620658        3.4529797597
 C         4.6826273234        0.9103559609        2.5463856229
 C         5.9851718716        2.8874321459        3.5191161163
 C         3.4548305747        2.8079938162        6.2176288815
 C         3.2537132244        1.8908603745        7.4286730099
 C         3.3019888866        2.6956404591        8.8484582950
 C         2.3147237017        3.8872576171        8.7409325697
 C         1.1050380616        3.8869798428        9.5951028662
 C         3.0823221029        1.7367095029       10.0278574586
 C         4.7317129956        3.3408126644        9.0875986503
 O         3.0489851827        0.6541264239        7.4805616466
 O         2.5779654898        4.8341895103        7.9817021445
 C         0.2560398648        5.1149494698        9.6782593459
 C        -0.3019594178        5.4604958268       11.0895933229
 C        -1.2538324221        6.7591982079       11.2537999146
 C        -0.2773149426        7.9691271174       11.1539748604
 C         0.1713749636        8.6733015735       12.3616673352
 O         0.1914952613        4.8827794899       12.0823538624
 O         0.2481566382        8.2652383887       10.1230385031
 C        -2.4202905466        6.7626625989       10.1550899655
 C        -1.9663749993        6.5859292901       12.6182465293
 H        -0.0662634611       -6.3262765030       -3.1166513224
 H         0.3962324420       -6.7268260283       -4.7897631144
 H         1.4113402328       -5.5428505179       -3.6692539785
 H        -0.9701952430       -4.7558339120       -9.1150300225
 H        -0.2659273113       -6.0207390141       -8.2702172210
 H        -0.0864464735       -2.1068468667       -4.8024456825
 H        -0.0297479081       -1.8847201140       -6.5688100703
 H         1.3377852886       -2.4014915242       -5.6266358126
 H         2.2115750257       -4.5252315322       -6.2299374896
 H         1.1707537551       -5.6215497789       -7.0111599436
 H         1.6360812092       -4.0218343309       -7.7091425034
 H        -3.2155242028       -5.4144580367       -8.6717564336
 H        -2.3875704319       -6.7801144966       -9.0989754952
 H        -4.8301801044       -8.0219374803       -3.8169568915
 H        -3.5458640490       -6.8159657433       -4.2058782987
 H        -4.3767707842       -8.1446350008       -8.9259612064
 H        -5.1137156350       -6.5328216815       -8.4218586205
 H        -5.9255355735       -8.1527430898       -8.1370717810
 H        -4.9260942377       -9.3867023315       -5.9736039191
 H        -3.3952933602       -9.6086110767       -7.1280120064
 H        -3.3447042174       -9.1729168511       -5.4711569380
 H        -4.9668135926       -6.2204293450       -2.2214556672
 H        -6.3461785624       -5.9784772007       -3.3267782398
 H        -6.7823498419       -1.9067141211       -4.4096649952
 H        -7.0549211574       -1.3698455322       -2.7447309408
 H        -7.2693497985       -3.9664932472       -2.8715907431
 H        -7.1000336604       -2.9478758128       -1.4622855322
 H        -6.6865506322       -4.6433542279       -1.3331960142
 H        -4.1334161641       -2.9470744684       -0.4078173438
 H        -4.0657045973       -4.6507901970       -0.8928103204
 H        -3.0621266769       -3.4585643198       -1.6783453394
 H        -6.7849392992        0.4187456395       -4.6579954347
 H        -6.1448732765        0.7525308421       -3.1579512967
 H        -1.4775027807        2.6765279028       -4.4070486846
 H        -1.2498281944        2.2750602781       -2.6327030894
 H        -4.4007761649        2.3134403300       -6.0146228174
 H        -2.9969671921        1.4845017256       -6.2133070811
 H        -2.9551835717        3.0732227617       -5.3117297803
 H        -3.4710606363        2.9140308642       -2.8550221102
 H        -5.0338504612        2.6195623767       -3.4846609423
 H        -4.2297250244        1.5044250660       -2.1451244419
 H         0.5162543235        0.9673859784       -4.6444063407
 H         0.6895898858        0.8761592843       -2.9584376848
 H         4.4574959489        3.7275054774       -1.0070637831
 H         2.8217438731        4.5790574848       -0.9351340701
 H         3.1989588912        1.9764524367       -4.9188159336
 H         2.9999250069        0.8804582729       -3.5808961148
 H         4.4729228029        2.2117240566       -3.6503573513
 H         3.0763362250        4.6115806623       -4.6815973319
 H         2.7816426090        5.3892082118       -3.0968535064
 H         4.2917029550        4.5209996386       -3.4932981457
 H         2.8365823646        4.1408012718        1.1431121073
 H         2.8292590044        2.4031407802        0.8146066841
 H         1.9024042767        2.0303031357        4.9827746194
 H         3.4554115074        1.1109877827        4.8144394403
 H         5.4422113345        0.8204598176        1.7788574578
 H         3.8051092854        0.5317870419        2.0802780862
 H         4.9403068667        0.2699683646        3.3765815482
 H         6.1132148564        3.9936783166        3.4788542795
 H         5.9275055092        2.4272284134        4.4892288170
 H         6.8167642333        2.5128848710        2.7712380287
 H         2.9425314102        3.7236898494        6.3674503910
 H         4.5447797670        2.9837353654        6.3215764881
 H         0.5150391482        3.0465388627        9.0985174960
 H         1.3495229577        3.5330577793       10.5934766175
 H         3.6725063326        0.8951722768        9.8122073255
 H         2.0336960192        1.5031814791       10.1807495459
 H         3.5371233745        2.1769764939       10.9101657786
 H         5.1077819264        4.0878596267        8.4126151601
 H         4.8447737792        3.7700301250       10.0810655035
 H         5.3600704195        2.4838995712        8.9825450458
 H         0.8097131868        6.0203918803        9.3544517756
 H        -0.4305858815        4.9682285248        8.8431015184
 H        -0.5409830834        8.7080755943       13.2032257621
 H         0.9902008811        8.0084687007       12.6265060062
 H         0.4214023634        9.7106645218       12.2330051608
 H        -2.0603622519        7.1483798289        9.2083384219
 H        -3.4139345296        7.2544047296       10.5138341775
 H        -2.7700514903        5.7812637389        9.9452708657
 H        -2.3897722399        5.5602470701       12.5257993352
 H        -1.1954287732        6.6698899130       13.3348316359
 H        -2.6702621664        7.3829641990       12.8762586264
 Na       -2.4004226346       -2.4031122561       -4.8278064460
