155

 C         0.4187533224       -5.6806948464       -3.9781877423
 C        -0.2882234369       -4.4416219019       -4.7783543191
 C         0.2652137976       -4.0750522162       -6.1203058665
 C        -0.9966490117       -4.2404780104       -7.1117867506
 C        -1.0715258316       -5.1813138932       -8.4097473204
 C         0.7422553972       -2.4961177648       -6.0763047411
 C         1.4704496503       -4.8221759270       -6.5909173622
 O        -1.0853834748       -3.8044787568       -4.1361821802
 O        -2.0525251831       -3.5763753323       -7.0040645508
 C        -2.4107244742       -5.9877651448       -8.3634392702
 C        -2.4186793688       -6.9831242750       -7.0677868444
 C        -3.7668805404       -7.7389241986       -6.6707813762
 C        -4.5589940649       -6.8722543268       -5.6078795509
 C        -4.1528086400       -6.9482466523       -4.1281195284
 O        -1.3918528279       -7.0104224108       -6.3651478558
 O        -5.4518002753       -6.1890150079       -6.0897856792
 C        -4.6091438258       -7.8459960699       -7.9592849535
 C        -3.3494340064       -9.0973866532       -5.9369337425
 C        -5.0453489090       -6.1624552957       -3.1172241933
 C        -4.8947253032       -4.5641578093       -3.3161206291
 C        -5.2588288985       -3.5299569028       -2.1185379675
 C        -5.1418266844       -2.1704518133       -2.8446897721
 C        -6.1994287025       -1.6557125873       -3.7771795627
 C        -6.7534561314       -3.7302654452       -1.5873698845
 C        -4.4414968469       -3.9588801634       -0.8406046328
 O        -4.7018076229       -4.1359644726       -4.4487390919
 O        -4.1072607920       -1.5271256965       -2.6568256639
 C        -5.9064849132       -0.1579167347       -4.0840169769
 C        -4.5325411076        0.0944127834       -4.7016326271
 C        -3.6212387293        1.3167143908       -4.0707636639
 C        -2.1507242201        0.7926100903       -3.8401912787
 C        -1.2867824668        1.7256186551       -2.9625755579
 O        -4.1714864085       -0.5446058910       -5.6429360221
 O        -1.6448242127       -0.1689566848       -4.4547039908
 C        -3.3047750636        2.2405145144       -5.3028107223
 C        -4.1507936621        2.0658804118       -2.8637854108
 C         0.2719170345        1.5639045449       -3.2508978841
 C         0.9560839209        2.9221376318       -3.1996904053
 C         2.6666227074        2.9875357481       -3.0116196328
 C         2.7814667544        2.9463639874       -1.4151082635
 C         3.6247846420        4.1651262486       -0.7968517020
 C         3.4405131139        1.7189170164       -3.4282389776
 C         3.2244092633        4.2904698341       -3.6580754327
 O         0.4178123356        3.9596482059       -3.4080104622
 O         2.2567615944        2.1086158770       -0.7067084775
 C         3.6961181477        3.9301153787        0.7220829258
 C         4.9940187053        3.3494316164        1.1594589088
 C         4.9688154126        2.4009467653        2.5667439635
 C         3.9862913284        2.9538685775        3.5761027776
 C         3.3140602050        2.0918613212        4.6982754194
 O         6.0502611587        3.3889395065        0.5925925512
 O         3.7448612142        4.1038016226        3.7223760029
 C         4.4814106219        0.9757292381        2.2128070633
 C         6.3370939390        2.4128115728        3.3469299905
 C         3.8056141352        2.5646113165        6.1290298184
 C         2.8688425164        2.1363913064        7.3039028325
 C         3.0953640792        2.6715626809        8.7625159666
 C         2.2206298391        4.0219626673        8.7343277092
 C         0.7301537908        3.9422794211        9.2151828892
 C         2.6252246807        1.5571621681        9.8908876452
 C         4.5441908563        3.0218759993        9.1681294416
 O         1.8363651370        1.5110174560        7.0816271829
 O         2.7350296553        5.0143941822        8.1913627598
 C         0.1158486304        5.3634619775        9.3860091631
 C        -0.6829131132        5.3424203466       10.7442358786
 C        -1.4664301301        6.7262425697       11.2424965876
 C        -0.4914115121        7.8928038119       11.4808454161
 C        -0.0216940693        8.2304091557       12.9251739471
 O        -0.6170628354        4.3620429238       11.4998231721
 O        -0.0585494923        8.5187162477       10.5651069311
 C        -2.4113653518        7.0174354869        9.9729677242
 C        -2.2872295787        6.3816464744       12.5163171367
 H         0.3737497280       -5.5906888500       -2.9620639575
 H        -0.0994109066       -6.5923274493       -4.2956721419
 H         1.5185994738       -5.8313247853       -4.1873248774
 H        -1.0558689267       -4.5252452573       -9.1902363527
 H        -0.2733685822       -5.9141001360       -8.5083512838
 H        -0.0414853298       -1.8457745858       -5.7303818459
 H         1.1089345328       -2.1313024433       -7.0339073899
 H         1.5843963154       -2.3873372706       -5.3737171806
 H         2.2790186159       -4.4363694522       -5.9701873850
 H         1.4461986635       -5.8141128387       -6.3082493648
 H         1.7440352295       -4.8295087236       -7.6206161752
 H        -3.1315007142       -5.2425779464       -8.5047659414
 H        -2.5773828795       -6.6707180522       -9.2229787051
 H        -4.0451825282       -7.9982542347       -3.7994111460
 H        -3.1615561116       -6.4259126047       -4.1061371851
 H        -4.0048211954       -8.1915901422       -8.8474352419
 H        -5.0443015024       -6.8928174986       -8.1714129874
 H        -5.4712410621       -8.5289183790       -7.7143639449
 H        -4.2133172143       -9.7583047030       -5.7370260270
 H        -2.7527349233       -9.6389373813       -6.6435201568
 H        -2.7766345112       -8.8603249714       -5.0419224327
 H        -4.7406475374       -6.5596098527       -2.1141834158
 H        -6.1239106258       -6.2374885651       -3.1271471018
 H        -6.0229705550       -2.1216174976       -4.7579827960
 H        -7.2577886403       -1.6871838550       -3.4434889447
 H        -7.2693615759       -3.9700517348       -2.4261983433
 H        -7.0764216672       -2.7460049425       -1.1395079299
 H        -6.8541484087       -4.4962765798       -0.8140778689
 H        -4.7325074066       -3.4359295034        0.0646659917
 H        -4.5708268842       -5.0154100027       -0.5265118376
 H        -3.3882182723       -3.6240508301       -0.8951497341
 H        -6.7145277685        0.2857700763       -4.6891428530
 H        -5.8544134638        0.3634579914       -3.1409130211
 H        -1.5435469568        2.7778338584       -3.0686753766
 H        -1.5112825762        1.5974564348       -1.8863322308
 H        -4.2296748573        2.5575153156       -5.7643644728
 H        -2.6003429151        1.7500287014       -5.9432942832
 H        -2.8042747541        3.0873544423       -4.9826077526
 H        -3.3782168678        2.7350599082       -2.4969402015
 H        -5.1028011544        2.5624736069       -3.1725323135
 H        -4.5815614680        1.4368220998       -2.1095019502
 H         0.5638721250        1.2562744021       -4.2376630696
 H         0.8901765184        0.9888697511       -2.4964596085
 H         4.6172344376        4.0626536746       -1.3412983835
 H         3.0808929925        5.0737265122       -1.0595825313
 H         3.2407996960        1.6021588077       -4.5758198522
 H         3.0528887246        0.8985536134       -2.8287809533
 H         4.5548683406        1.7084139732       -3.3531487910
 H         3.0527169021        4.2874471068       -4.7303533588
 H         2.6858654463        5.1445095416       -3.2273255580
 H         4.3142563770        4.3806090821       -3.5366206525
 H         3.4522372132        4.8124834361        1.3524706667
 H         2.8534225863        3.2128388813        0.9675711020
 H         2.2417965535        2.2608578705        4.6176969514
 H         3.2447731351        0.9977623246        4.6002837312
 H         5.0398432403        0.5065969919        1.4199034275
 H         3.4475495614        0.9926932541        1.9795537194
 H         4.6048062894        0.3308662347        3.0835909367
 H         6.4493149839        3.4048233258        3.7944574912
 H         6.4144663748        1.5106857633        4.0226277579
 H         7.0293890756        2.1916469867        2.5167722694
 H         3.8043281318        3.7078255945        6.1762287052
 H         4.7574696081        2.1234860833        6.4306158536
 H         0.1921276943        3.5059847446        8.4289392764
 H         0.6788659873        3.4917869938       10.2282379565
 H         3.1434642357        0.6753571895        9.5559299320
 H         1.5730312811        1.2139177353        9.8853687410
 H         2.8367120308        1.8362646943       10.8708086432
 H         5.0626716987        3.3032853512        8.2869802025
 H         4.5728781213        3.9814867361        9.7099541776
 H         5.1059181158        2.2945451903        9.8366858908
 H         0.9149935779        6.1068218639        9.5117260949
 H        -0.4433356794        5.7312942958        8.4912048288
 H        -0.5940016513        8.9862232039       13.3378795667
 H        -0.0936152713        7.4022446183       13.6958849139
 H         0.9760983808        8.6004425963       12.8403789115
 H        -1.9163957180        7.4861663976        9.1236550683
 H        -3.1802983581        7.7123678196       10.2242176363
 H        -2.8279722395        6.0944801478        9.5688603483
 H        -2.8842337950        5.5090448104       12.1969729409
 H        -1.6338411142        6.1393252449       13.4302657359
 H        -3.0400198069        7.1203543518       12.7487339815
 Na       -2.6613750658       -2.3470104326       -4.9513702867
