155

 C         3.6851328251       -0.8739889529       11.4679032065
 C         3.4532248128        0.1131583567       10.3273791225
 C         4.6989530736        0.6098720628        9.6106068363
 C         4.5451060460       -0.1207659510        8.2442905326
 C         4.8893947463        0.5659605273        6.9461662369
 C         4.6157782732        2.1696126175        9.5609587298
 C         6.0384882435        0.1982158987       10.2740141757
 O         2.3393779282        0.4729570755       10.0101185892
 O         4.0711948052       -1.2556619692        8.2311336083
 C         3.9691943107        0.0276765086        5.8444717417
 C         4.4680069400        0.0706250084        4.4012886607
 C         3.4449962988       -0.6001772137        3.2200422718
 C         2.0354040669       -0.5977796428        3.7551816317
 C         1.4421010306       -1.8153798335        4.4488308565
 O         5.4660076917        0.6219404774        3.9834821872
 O         1.4529370274        0.5152951241        3.8464351239
 C         3.5243781633        0.2912933252        2.0028098866
 C         4.0158307414       -1.9866740302        3.0699315635
 C        -0.0718138343       -1.6229892178        4.5439780465
 C        -0.8526424119       -1.9146883036        3.2700772391
 C        -2.0627268195       -2.9731236170        3.3491176816
 C        -3.2591608377       -2.2631277196        2.7706125109
 C        -4.6080135449       -2.0082002305        3.6124602486
 C        -1.6052983388       -4.1608991807        2.4040819789
 C        -2.2292820212       -3.4864827212        4.6982897084
 O        -0.6737081142       -1.3726680372        2.2258394927
 O        -3.2154964143       -1.8128232285        1.6488803824
 C        -4.9073851512       -0.4795355230        3.5750169724
 C        -3.8049655300        0.3323498895        4.2284418175
 C        -3.8407901835        1.9683936928        4.3213296759
 C        -2.7321869555        2.5642075578        3.4176227363
 C        -1.2740768574        2.3947973141        3.6383682242
 O        -2.8192335941       -0.2640509665        4.6374454708
 O        -3.1103680332        3.1356443186        2.3878244463
 C        -5.1945780767        2.6317452020        3.8645280122
 C        -3.6526345442        2.4074660054        5.8308466051
 C        -0.4791754235        2.8555248329        2.4887662662
 C        -1.0650143191        2.2882978542        1.2078730433
 C        -0.6805265057        2.9824666081       -0.2112885674
 C        -0.6990527519        1.7125801322       -1.2995335290
 C        -1.4974459581        1.9313722672       -2.7156569735
 C        -1.9652134562        3.7697721915       -0.4416551064
 C         0.5850867212        4.0203916445       -0.2705467434
 O        -1.7331884930        1.2792058172        1.2892759396
 O        -0.1784047128        0.6175316165       -1.1405497969
 C        -1.7621889670        0.7754085988       -3.6645565455
 C        -2.8413513349       -0.0870117470       -3.1532815934
 C        -3.9292134767       -0.8049726520       -4.2047000258
 C        -3.0442014098       -1.7740553417       -5.0411301656
 C        -3.5181258169       -3.1808298561       -5.4662605574
 O        -2.9404713543       -0.4909323536       -1.9986008761
 O        -1.9301287957       -1.4251835433       -5.3783706638
 C        -5.1654071111       -1.4890315634       -3.3814274402
 C        -4.5785951461        0.0636936820       -5.2353028748
 C        -3.8528536746       -3.2356175976       -6.9519965991
 C        -2.5964043350       -2.9405254987       -7.9545577005
 C        -2.8094710657       -1.7577640167       -9.0113483158
 C        -1.8271800696       -0.6099487075       -8.5957103852
 C        -0.3425711139       -0.7007700805       -9.0381900729
 C        -2.2479653632       -2.2474171174      -10.3260549259
 C        -4.2091240538       -1.1354751233       -9.1956458974
 O        -1.5629842592       -3.5221244436       -7.8960995499
 O        -2.2347461130        0.3870256443       -7.9976365628
 C         0.7051360860        0.0816597611       -8.3019841136
 C         1.9274113157        0.5579316237       -9.1719942768
 C         3.2620158359        1.0673342469       -8.3959918224
 C         2.8194081178        2.4564303572       -7.7212142897
 C         1.7527947972        3.2158004921       -8.5119232685
 O         1.8741510674        0.4732844518      -10.3937330158
 O         3.1795061897        2.7581156547       -6.6064125577
 C         3.8150529129        0.0919031813       -7.3820642609
 C         4.2096757167        1.4107828155       -9.5894213260
 H         4.1476780187       -1.8423371760       11.1341293977
 H         4.4021965569       -0.5907634450       12.1403660956
 H         2.8086051428       -1.0626547205       12.0640261461
 H         4.7345884346        1.7244015116        7.0286856024
 H         5.9959800282        0.3652754920        6.7603861000
 H         4.6071384268        2.5346542579       10.6121614624
 H         3.5742598152        2.2424490085        9.2331835638
 H         5.3247004541        2.6298556917        8.8339482544
 H         6.1572653285       -0.8221928606       10.3189762790
 H         6.8900790891        0.7235402574        9.8292440059
 H         6.2037980390        0.5376105421       11.3413016841
 H         3.8222644669       -0.9895226050        6.3046795081
 H         3.0015032084        0.3899170366        5.9406044405
 H         1.5740064808       -2.8130558211        3.9143279735
 H         1.8888129261       -1.9088692208        5.4323914869
 H         2.9755507829        1.1758832141        2.2931751571
 H         3.1014313281       -0.0491249709        1.1100099459
 H         4.6103498077        0.5757791890        1.9242398355
 H         3.6473392887       -2.4093879460        3.9667374160
 H         3.6453951955       -2.5948005998        2.2755467843
 H         5.0499626061       -2.1614971268        3.0356060168
 H        -0.2833039233       -0.5391568275        4.6824640124
 H        -0.6058512369       -2.1694551375        5.3894778066
 H        -5.3724129296       -2.5341820134        2.9838186285
 H        -4.6832520346       -2.3777834430        4.7518564694
 H        -1.5183587134       -3.8508106937        1.3166408171
 H        -2.2756523007       -4.9969815954        2.3988978992
 H        -0.7111864597       -4.6356338420        2.8124065677
 H        -1.3385566704       -4.0149356302        5.0352780365
 H        -2.4287764249       -2.7005782048        5.4165660004
 H        -2.9768694945       -4.3036332734        4.7431839856
 H        -4.7979079333       -0.2291032617        2.5003719760
 H        -5.9140706799       -0.1484424569        3.8770513936
 H        -1.0006911043        2.8767349853        4.6337760706
 H        -1.0865312706        1.3485036005        3.7105995826
 H        -6.0068867744        2.1171337124        4.4229785520
 H        -5.4741825784        2.3657804264        2.8680657514
 H        -4.9805987660        3.6049648537        4.0341059830
 H        -3.0129666566        3.2418853757        5.8979076068
 H        -4.6680563877        2.5068662016        6.1788834078
 H        -3.0345347114        1.7326366972        6.4606821765
 H         0.6223567830        2.5714694134        2.5011578694
 H        -0.5015730783        3.9599327345        2.5198746013
 H        -2.4581591110        2.4567887856       -2.4999969230
 H        -0.8502219772        2.6060197811       -3.2793658760
 H        -2.0109546424        4.4056282927        0.4395216913
 H        -2.8428173251        3.0520565224       -0.3569288283
 H        -2.0976693431        4.3099730246       -1.4257181497
 H         0.5615556859        4.6343181906        0.6219580110
 H         1.5547023541        3.5441614415       -0.2110675483
 H         0.5348166101        4.5107402823       -1.2930609476
 H        -1.7811174524        1.2044611544       -4.6498169681
 H        -0.8126181502        0.2640412766       -3.7873985674
 H        -2.8942996936       -4.0240952012       -5.2497737164
 H        -4.5024992704       -3.4624772032       -5.0384002591
 H        -5.8255725237       -1.9762523029       -4.1187721590
 H        -5.8404949173       -0.7372440454       -3.0361379753
 H        -4.8123370557       -2.2158514625       -2.5692315646
 H        -5.2371488809        0.9405810503       -5.0011655459
 H        -3.7416159095        0.6331866329       -5.6731689663
 H        -4.9112984346       -0.4682544330       -6.0693889692
 H        -4.6819849849       -2.5592976787       -6.9807116548
 H        -4.1460594284       -4.2690493354       -7.1501289649
 H        -0.0331764758       -1.7292691959       -9.0878392803
 H        -0.3431270178       -0.3606925050      -10.1230710335
 H        -2.2905842076       -1.3710398972      -11.0416055427
 H        -2.8568412294       -2.9431649441      -10.9269806943
 H        -1.2288159363       -2.6765335303      -10.4940631254
 H        -5.0355122269       -1.8823893040       -9.3015871048
 H        -4.6378600133       -0.5159761433       -8.4039309104
 H        -4.2214279429       -0.4909926442      -10.0852186802
 H         0.2269619688        1.0372710993       -7.9902144539
 H         0.9450329758       -0.4022645429       -7.3881056838
 H         0.8667571426        2.7482213877       -8.8929403348
 H         1.3297896110        4.1054436533       -8.0121578520
 H         2.2997142960        3.5997514463       -9.3943285901
 H         4.5244938936       -0.6013106638       -7.8346076945
 H         3.0501697355       -0.5597791887       -6.9369075516
 H         4.3603173334        0.6251424475       -6.5658456369
 H         5.0386517038        0.6597404360       -9.7363997761
 H         3.5652242675        1.2469138986      -10.4774223620
 H         4.7592985569        2.3924965470       -9.5670627824
 Na       -1.7682999721       -0.7106702875        0.0493249044
