155

 C        -2.8598231019       -9.5421141582        2.6882655989
 C        -1.2775716136       -9.6615112098        2.6164107502
 C        -0.4040021674       -8.3735834692        2.6941725494
 C        -1.1029452599       -7.1041707739        2.0646147963
 C        -1.2657429222       -6.9619690176        0.5747640006
 C        -0.1761150231       -8.0037396754        4.2570835844
 C         0.9811887053       -8.5339307107        2.0742445027
 O        -0.8780819473      -10.8050221618        2.6916502854
 O        -1.4889064334       -6.2303763639        2.8255051005
 C        -0.4103746545       -5.8690504827       -0.1476181489
 C        -0.8557746419       -5.7013182709       -1.6795276880
 C        -1.1732858677       -4.3021286661       -2.0470401936
 C        -0.1439759131       -3.2723866189       -1.5229880569
 C         1.0239408106       -2.8711801697       -2.4864408072
 O        -0.9527743092       -6.6460585221       -2.4247748189
 O        -0.3229307329       -2.6996956839       -0.5148023672
 C        -1.2619014470       -4.0919342828       -3.5920652663
 C        -2.5952039216       -4.0163671604       -1.4580271776
 C         2.1824404804       -2.1092823094       -1.7941301604
 C         1.9238611704       -0.6273674408       -1.7697450953
 C         2.9485095239        0.2335220553       -0.8384807802
 C         3.6302260329        1.2488256357       -1.8023824669
 C         5.0117393070        0.9722165848       -2.3176894616
 C         2.0836896700        1.0394539292        0.2060940536
 C         3.9777434307       -0.5337820146       -0.0467296876
 O         1.0394922316       -0.1373257750       -2.4267213487
 O         3.0147442613        2.2705238171       -2.0932180393
 C         5.5418556924        1.7262798654       -3.5960236076
 C         4.9862928586        1.1528925973       -4.9613007257
 C         5.4328004594        1.8514533384       -6.3199864255
 C         4.0870086583        2.6578191977       -6.6839140624
 C         3.0363447959        1.7508962385       -7.2246053805
 O         4.2652980479        0.1631127380       -4.9539352690
 O         3.8891907913        3.7762068618       -6.2431412888
 C         6.5407188758        2.8766470290       -6.0641496600
 C         5.8820062808        0.8430710163       -7.4569790589
 C         1.5553574287        2.2815849964       -7.4526549338
 C         0.9021673635        2.6020791334       -6.1193003703
 C        -0.1682555505        3.7680697695       -5.9880579850
 C        -1.3458063291        3.5721146469       -4.9949907129
 C        -2.1299508991        4.7806622165       -4.5062090190
 C         0.6307685059        5.0603267409       -5.6236801789
 C        -0.7696546965        3.9141906464       -7.4175852899
 O         1.3718394588        1.9519833258       -5.2048222320
 O        -1.4986948356        2.4570394507       -4.5453914944
 C        -2.5585676197        4.8278395182       -3.0029794054
 C        -1.2948497838        4.4859699140       -2.0556264467
 C        -1.4032089789        4.1885935125       -0.4835868714
 C        -1.6692631400        2.6066316969       -0.4517312072
 C        -3.0732387733        2.1419276426       -0.0252920094
 O        -0.2198676988        4.4656916252       -2.5787756480
 O        -0.9639004326        1.8620003855       -1.0844691674
 C        -0.0722484242        4.5028827643        0.2706061280
 C        -2.5378341018        4.9948767739        0.1408347071
 C        -3.4389316214        2.1046495862        1.4963875885
 C        -2.2253080585        2.6040817492        2.3340360065
 C        -2.4382954398        3.2312980164        3.7453076596
 C        -3.1603241257        1.9586765365        4.6436567849
 C        -2.7900047546        1.7329623680        6.1351702580
 C        -0.9984199096        3.5740647942        4.3854273956
 C        -3.3402391585        4.4949173895        3.7886467295
 O        -1.1072174569        2.5209835116        1.8121974116
 O        -3.8515387267        1.1320726614        4.1449761338
 C        -3.8645212953        1.0854035136        7.0404122982
 C        -3.0953344806        0.5426010868        8.2920747021
 C        -4.0804014689       -0.0148727010        9.4608004440
 C        -4.7494592016        1.2504363913       10.2728605286
 C        -5.8150851116        0.7580497647       11.3173212694
 O        -1.9105052907        0.4232624956        8.3769857538
 O        -4.4471993817        2.4222828589       10.0972367469
 C        -5.1588143946       -0.8807681669        8.8144045189
 C        -3.2190380916       -0.9611259654       10.4387355365
 H        -3.0726478764      -10.4629359312        3.2249267571
 H        -3.0584643021       -8.6747670833        3.2213600020
 H        -3.2757845174       -9.4570389367        1.7236056516
 H        -1.0625015851       -7.8990455815        0.0641324206
 H        -2.3557344446       -6.7196845330        0.5345275136
 H        -1.0749165488       -7.9866052185        4.8656850031
 H         0.3902611498       -7.1080766278        4.3279640239
 H         0.4050384823       -8.7585719956        4.7867726913
 H         0.8160959856       -8.7987810190        0.9569902054
 H         1.4088628171       -7.5174430443        2.1150059723
 H         1.5186657076       -9.3887232886        2.4863624571
 H        -0.5044004194       -4.8457518619        0.3993182281
 H         0.6699977300       -6.0747166929        0.0896399241
 H         1.4981943718       -3.7827859930       -2.9442331776
 H         0.6639570817       -2.2633555786       -3.3773068978
 H        -0.9961763396       -3.1348777317       -3.9017826242
 H        -2.2350585886       -4.3627403580       -3.9276409764
 H        -0.5790449031       -4.7585136977       -4.1236107490
 H        -2.8960147990       -4.7307945599       -0.6722194172
 H        -2.6003636553       -2.9792486280       -1.1447624547
 H        -3.2398885075       -4.2086086976       -2.3352243247
 H         3.1993798549       -2.3426560325       -2.3552691190
 H         2.4487627630       -2.4788148363       -0.7654760082
 H         5.7849708596        1.3127784638       -1.5976582291
 H         5.2290985793       -0.0769810659       -2.4826590714
 H         1.2125335576        1.4109297800       -0.2564045634
 H         2.6630143077        1.8961450553        0.6736509290
 H         1.7896108151        0.4794563837        1.0212625377
 H         3.5580367606       -1.0984953674        0.7989992328
 H         4.5502849536       -1.2732219367       -0.6041474590
 H         4.7523101957        0.0552360794        0.4600466376
 H         5.3197920575        2.7866623420       -3.5037946648
 H         6.6624210865        1.5816766027       -3.6596664242
 H         3.4294023384        1.4899365571       -8.2270917946
 H         2.8941585820        0.8133912757       -6.6879124478
 H         6.2544238187        3.7182873622       -5.4792367417
 H         6.9919017802        3.2178307242       -6.9477584656
 H         7.3841825096        2.4880376827       -5.4506761899
 H         5.2319156522        0.9862263346       -8.2771642403
 H         6.8481449188        1.0128437673       -7.8656674082
 H         5.8715382582       -0.2018518835       -7.1395913354
 H         1.0042310431        1.5106492004       -7.9480458324
 H         1.4706502254        3.1559982238       -8.1429331895
 H        -1.6839491250        5.7505767418       -4.7290853141
 H        -3.0298126700        4.7267901819       -5.1112658524
 H         1.0375299616        5.0142578999       -4.5687789320
 H         0.0165848261        5.8342939969       -6.0269543095
 H         1.5105498148        5.2053642915       -6.3075338074
 H        -1.4953787481        4.6768705302       -7.4785644198
 H        -0.0041136536        4.0919695837       -8.1978760669
 H        -1.2171414152        2.9366408624       -7.7046593065
 H        -2.8574872826        5.8431206999       -2.7019557987
 H        -3.3636698700        4.0739384939       -2.8781924337
 H        -3.7197141475        2.7395812374       -0.6245664587
 H        -3.2329582616        1.1252335482       -0.4716981370
 H         0.6654586462        3.7490640088        0.0293732420
 H        -0.2786331630        4.4841758335        1.3210994121
 H         0.3244517729        5.4896621181       -0.0009647028
 H        -2.9577723036        4.6023526784        1.0979297064
 H        -2.3354576277        6.0491256247        0.4065205643
 H        -3.4630568268        4.9598175399       -0.4171090983
 H        -3.7309178997        1.0719607669        1.7783805630
 H        -4.5001176092        2.4890048694        1.6915554351
 H        -1.9706707673        0.9856434459        6.0815898451
 H        -2.4801549135        2.6688556411        6.5975905779
 H        -0.3099830919        2.7631618601        4.4230056735
 H        -1.0720578281        3.7831039086        5.4296071616
 H        -0.5434481360        4.3472604671        3.8213410996
 H        -3.3124498302        4.7999533219        4.8177211799
 H        -2.9824961848        5.3532393217        3.1940791705
 H        -4.3985022200        4.2837208835        3.6811390394
 H        -4.6448842079        1.7099042932        7.3685893954
 H        -4.2008494058        0.2012514920        6.5092539058
 H        -5.6272413203       -0.3008908089       11.4985863923
 H        -5.8293115823        1.3244197425       12.1969429356
 H        -6.8008663370        0.8502052674       10.8609028342
 H        -5.3363994304       -1.7325169324        9.4541391677
 H        -4.8918679851       -1.3100326687        7.8713746592
 H        -6.0980695033       -0.3603426328        8.6111790629
 H        -3.8988352361       -1.5296890567       11.0561284617
 H        -2.6267966773       -1.5938936842        9.8292274784
 H        -2.4519593527       -0.4121343583       11.0498097233
 Na        0.6857742043        2.2637432909       -2.9488565709
