155

 C         1.9025316307       -4.4037525927       -4.4524075898
 C         0.6320492412       -3.5588880628       -4.8384649267
 C         0.4706800448       -3.1736570418       -6.3191480139
 C        -0.8840327494       -3.5810173578       -6.8163555672
 C        -0.9912066117       -4.3509460447       -8.2060418483
 C         0.3358139982       -1.6033016668       -6.3239530297
 C         1.5615278579       -3.5400864477       -7.2496538278
 O        -0.2305147227       -3.2185348428       -4.0793204011
 O        -1.9080675067       -3.2297367664       -6.2385147111
 C        -2.0949427834       -5.4656377383       -8.0670297732
 C        -1.6872999051       -6.4118698226       -6.9010855551
 C        -2.4977203212       -7.6677585717       -6.6120268003
 C        -3.7592659309       -7.2081308792       -5.7388252403
 C        -3.5190845501       -7.0280708135       -4.2489883318
 O        -0.6628262169       -6.2029935313       -6.2140363935
 O        -4.8374088953       -7.0443527147       -6.2976896313
 C        -3.0334199127       -8.4960215231       -7.8370364101
 C        -1.7112247753       -8.6396773389       -5.7560111995
 C        -4.6111494383       -6.3005868832       -3.5288268197
 C        -4.4112547740       -4.7964863387       -3.2699073339
 C        -5.5233467920       -3.9596267731       -2.4691629576
 C        -5.1714726402       -2.4029909344       -2.7021732767
 C        -6.0819208560       -1.6331627381       -3.7415382560
 C        -6.9070695845       -4.3151406986       -2.8806286827
 C        -5.2592791118       -4.4014055725       -0.9329157497
 O        -3.4770220351       -4.2589430789       -3.7673210129
 O        -4.0710838427       -1.9781914943       -2.3047701933
 C        -5.6271608327       -0.1195314369       -3.8186201404
 C        -4.2578766824       -0.0479348518       -4.5632334832
 C        -3.2787756749        1.1672262702       -4.3799222099
 C        -2.2815870107        0.8361051190       -3.2032502550
 C        -1.9012813235        1.8728309641       -2.0979155399
 O        -4.0667297636       -0.9198940376       -5.4180935620
 O        -1.7924939614       -0.2452223859       -3.1399055810
 C        -2.2533379404        1.2200019543       -5.5217092730
 C        -4.1129669266        2.4416969233       -4.2652554655
 C        -0.4691990265        1.7551256426       -1.7088298069
 C         0.4976993617        2.5786330133       -2.6015442187
 C         2.0918066065        2.5948785766       -2.2220856548
 C         2.2834752921        3.0130765104       -0.7206739321
 C         3.5907140338        3.7541166475       -0.3980552789
 C         2.6753806891        1.1984049636       -2.3850728027
 C         2.8461674632        3.5059935722       -3.2343365076
 O        -0.0208969152        3.3477798340       -3.4387450432
 O         1.5093393116        2.8153564657        0.1697724402
 C         4.0708934922        3.6480605424        1.0561413137
 C         5.1318837983        2.4989123617        1.1357236186
 C         5.4074626803        1.8978418204        2.4875789723
 C         4.9517856924        2.8863181235        3.5988157230
 C         3.9237611139        2.6092930037        4.7416629112
 O         5.4989133374        1.9357614301        0.1100236647
 O         5.5169454300        4.0023793997        3.4268940622
 C         4.6957866449        0.5403638285        2.6723031089
 C         6.9924563477        1.7538244895        2.6335764877
 C         3.6375875675        3.9106465570        5.5802410166
 C         2.3742658840        3.8824287064        6.4758264493
 C         2.3349024875        2.8735066221        7.7212269832
 C         1.6482409430        3.6258479493        8.9591668223
 C         0.1202587398        4.0098500958        8.8203891932
 C         1.3351832590        1.6837041422        7.2909300693
 C         3.7323547888        2.2945242536        8.0703114531
 O         1.4455051252        4.6470175164        6.2654982884
 O         2.1685258179        3.9349053329        9.9467263357
 C        -0.2345932856        5.0775703130        9.7300032488
 C        -1.7618455438        5.5068546332        9.8012936644
 C        -2.2077787860        6.7850115801       10.6770104594
 C        -1.5328324743        6.8739386423       12.0968660634
 C        -1.8825055303        5.9322722309       13.2189394908
 O        -2.5778165006        4.7362021187        9.3721128484
 O        -0.7237438786        7.7899798991       12.3621193819
 C        -1.8918908015        8.0819222378       10.0177222791
 C        -3.7465621606        6.5929031580       10.8066668180
 H         1.7745722753       -5.0780343391       -3.5448809408
 H         2.2647103239       -5.0337964863       -5.3032544252
 H         2.5224951802       -3.6557874503       -4.0815742176
 H        -1.5146649139       -3.7246040560       -8.9140177394
 H        -0.0760532383       -4.6323357373       -8.6621306725
 H        -0.3592022258       -1.2805561539       -5.5804644232
 H         0.1277664576       -1.3081025400       -7.3358366909
 H         1.3247369457       -1.1663553745       -6.1404206370
 H         2.5077347729       -3.2469359419       -6.8311869580
 H         1.4671472862       -4.6154119783       -7.2807425144
 H         1.4770565185       -3.0866834757       -8.2756825912
 H        -3.0694639098       -4.9637942156       -7.7821317026
 H        -2.2836748252       -6.0080097420       -9.0251622755
 H        -3.3817471797       -8.0156655120       -3.7792900523
 H        -2.5932518388       -6.5111050755       -3.9842597362
 H        -2.1823082715       -8.8562936774       -8.3796859785
 H        -3.6155987638       -8.0217196567       -8.6229157784
 H        -3.4847661325       -9.3742330183       -7.4922484519
 H        -2.3298507427       -9.4896539029       -5.4500393675
 H        -0.8570583736       -9.0107439408       -6.2805949323
 H        -1.2187547693       -8.1250799308       -4.9414502859
 H        -4.7267449392       -6.8224861514       -2.5933290903
 H        -5.4909282262       -6.4612295060       -4.2096276513
 H        -6.0494565176       -2.1212767027       -4.7338413714
 H        -7.1503904315       -1.6156204679       -3.5266658584
 H        -7.2294260782       -4.0816368707       -3.9395643294
 H        -7.5995359506       -3.8401507323       -2.1897958959
 H        -7.0506723309       -5.3691829227       -2.8064096992
 H        -6.0492494679       -4.0270058459       -0.2611568646
 H        -5.1954927501       -5.5412929493       -0.9061143976
 H        -4.2709514314       -3.9852892032       -0.5870231346
 H        -6.3502762213        0.4513071971       -4.3614107573
 H        -5.4927068307        0.3056070309       -2.7875653623
 H        -2.0993380433        2.8579935303       -2.5033975635
 H        -2.4303456760        1.7267442757       -1.2214449564
 H        -2.8242826041        1.1087753953       -6.4214547242
 H        -1.6294430034        0.4273319699       -5.3430509612
 H        -1.6131998869        2.0801207235       -5.5443555511
 H        -3.6293761741        3.3785725368       -4.1687028531
 H        -4.8092392368        2.4437255979       -5.1772566987
 H        -4.7721533147        2.3604184287       -3.4168914711
 H        -0.0641757110        0.7665878284       -1.7564953106
 H        -0.1047284993        2.0967025058       -0.7477197740
 H         4.3422136737        3.3000462972       -1.0324596757
 H         3.4387798213        4.7932811432       -0.6512890476
 H         2.7238919904        0.8883703682       -3.4389769833
 H         1.9697577949        0.4620522892       -1.9918994374
 H         3.6432394189        1.0262188931       -1.8825933760
 H         2.9183355857        3.0377018641       -4.2238357862
 H         2.3737287432        4.4291496602       -3.3397238136
 H         3.8859541512        3.7446832908       -2.8315059932
 H         4.5116918105        4.5593737987        1.4203412701
 H         3.2384305491        3.1474257776        1.4798263686
 H         2.9976560558        2.3261079439        4.1539484005
 H         3.9398768496        1.7346166782        5.3713689599
 H         5.2559166746       -0.2916930628        2.2795627262
 H         3.8473726556        0.4578941143        2.0658635872
 H         4.4600788502        0.3602433409        3.7129918279
 H         7.4760490247        2.7138880841        2.5101047459
 H         7.1124755966        1.4496168708        3.6388208327
 H         7.3631817814        1.0111201172        1.8549331707
 H         3.5041074244        4.7593378776        4.9196264254
 H         4.4403203947        4.1212381789        6.2254074587
 H        -0.1085820895        4.2774724984        7.7798836485
 H        -0.4996281382        3.1319327308        8.9528699013
 H         1.5645810467        1.0561481773        6.4365411660
 H         0.2676097192        1.9695031867        7.2129883233
 H         1.3899346510        0.9338698920        8.0166186800
 H         4.2171007384        3.1323976554        8.6863391907
 H         3.6269218597        1.3489970879        8.6770344028
 H         4.4232880943        2.1162410689        7.2158543698
 H        -0.0004797052        4.8172944234       10.7943641595
 H         0.4004227814        5.9651045513        9.5886444811
 H        -2.9003551479        5.5574536907       13.0183845232
 H        -1.4203789153        4.9715891593       13.2711685840
 H        -1.7623342007        6.4358740439       14.2514607524
 H        -0.8488114772        8.0721164776        9.8032563731
 H        -2.1832659563        8.9967677270       10.6484019406
 H        -2.5042547830        8.2030562422        9.1759168358
 H        -4.2411871493        6.4015141095        9.8310426248
 H        -4.0166779559        5.6350650269       11.2642757874
 H        -4.2239563288        7.4206761231       11.3039462257
 Na       -2.4014191640       -2.3940257719       -4.1228558501
