155

 C         1.9018779863       -4.4811010101       -4.5691607103
 C         0.7159228793       -3.5027558107       -4.8951063840
 C         0.5217616284       -2.8560890613       -6.3642100319
 C        -0.8746764222       -3.5700940800       -6.9003328287
 C        -1.1189269019       -4.4401007003       -8.2203906420
 C         0.3320455660       -1.2935040967       -6.3551315880
 C         1.8250465180       -3.0816025464       -7.0634281961
 O        -0.0444432265       -3.2004747962       -3.9808492826
 O        -1.7896561192       -3.2220367417       -6.1923138150
 C        -2.1866594944       -5.4189198567       -7.8730002804
 C        -1.6982480924       -6.3940573350       -6.8781235854
 C        -2.4507163252       -7.7059937049       -6.5137123239
 C        -3.5816916345       -7.1049098357       -5.7117454116
 C        -3.4473199534       -7.1412612920       -4.1493329245
 O        -0.6620445506       -6.1000850365       -6.3088363786
 O        -4.4957682819       -6.5455214834       -6.2446830641
 C        -2.8872885729       -8.3770012237       -7.7418123158
 C        -1.4492101818       -8.7079447634       -5.7516458590
 C        -4.7544345210       -6.3706206974       -3.5462613168
 C        -4.4220726727       -4.8841791543       -3.3915173286
 C        -5.5398149252       -3.9736607602       -2.6099778264
 C        -5.2226379864       -2.4415792147       -2.7967363041
 C        -6.2817109372       -1.5528350800       -3.5300404492
 C        -7.0913642771       -4.3479170301       -2.9092351836
 C        -5.1991543469       -4.0743566481       -1.1324156102
 O        -3.2530693866       -4.4967311409       -3.6402826609
 O        -4.1219450242       -2.0577432487       -2.5289896803
 C        -5.5939206659       -0.1979793534       -3.7299713453
 C        -4.2785293211       -0.2107476635       -4.5520149709
 C        -3.2923026355        0.9767529205       -4.3471024549
 C        -2.2909324418        0.6919792312       -3.1047102386
 C        -1.9707736185        1.8032163256       -2.1931928482
 O        -4.0073004878       -1.1352481748       -5.2697950602
 O        -1.8300203842       -0.4276848394       -2.9083370867
 C        -2.3069951294        1.0107273011       -5.7003455821
 C        -4.0532913534        2.3786891186       -4.3241602319
 C        -0.5277415850        1.6005303329       -1.6707567603
 C         0.4350402561        2.5941381709       -2.4649468000
 C         1.9350574720        2.5504386013       -2.2212024359
 C         2.3418500510        3.1330337994       -0.8220598429
 C         3.6911276923        3.7884485782       -0.5217391336
 C         2.5837479774        1.1268276179       -2.2081686212
 C         2.4903946109        3.4015255094       -3.3585332547
 O        -0.0287309558        3.1805615496       -3.3781122414
 O         1.4316374990        3.0288744368       -0.0057638852
 C         4.0727988142        3.4835168577        0.9514273764
 C         5.0346891368        2.3023934741        1.1104530290
 C         5.3895521721        1.8656613394        2.6304954908
 C         5.0735763640        3.0073903431        3.6795628985
 C         3.9596783489        2.7099846088        4.7489845674
 O         5.6119937484        1.7264515935        0.2024440003
 O         5.6052547807        4.0684722457        3.7055080140
 C         4.8056295872        0.5134455234        2.9040359941
 C         6.9395649942        1.6779362955        2.6592473287
 C         3.5509088878        3.9785235530        5.4482658347
 C         2.3658133211        3.8972620359        6.4106004875
 C         2.2112243807        2.8535215163        7.5635511875
 C         1.5570667453        3.7712314270        8.8497904575
 C         0.1799895457        4.2680926054        8.6961821807
 C         1.1771450592        1.7769675146        7.1460215722
 C         3.4543682625        2.2594462759        8.2194193622
 O         1.4642603488        4.6992986111        6.1945545220
 O         2.2732552246        3.9220370720        9.8517499221
 C        -0.2708860050        5.2026824313        9.9405843961
 C        -1.8236710403        5.4373372105        9.9120339463
 C        -2.2792937341        6.6322547486       10.7080855551
 C        -1.6409741339        6.6950509898       12.1427338143
 C        -2.2195914426        5.7950905508       13.1904014146
 O        -2.5540560789        4.8692046394        9.0886894108
 O        -0.7352619820        7.4210531553       12.4107583106
 C        -1.7567138812        7.7995420593        9.8993322792
 C        -3.8759730883        6.7993461619       10.7198592958
 H         1.7087171301       -4.8925236058       -3.5846804134
 H         1.8042016230       -5.2635707126       -5.3029592321
 H         2.9088699531       -3.9136839572       -4.4524200399
 H        -1.4110805148       -3.7747419093       -9.0366724101
 H        -0.1994446980       -5.0276645130       -8.5215308382
 H        -0.4183037817       -1.0349339442       -5.5977911908
 H         0.0461236506       -1.0135210497       -7.3736456898
 H         1.2782835099       -0.7982552146       -6.1587783065
 H         2.6745350894       -2.5881675478       -6.5228905100
 H         1.9625135496       -4.1572684324       -7.2107243204
 H         1.7792798154       -2.5546615413       -7.9775448897
 H        -3.1282943928       -5.1004971046       -7.4245878521
 H        -2.4660864167       -5.8958836866       -8.8112541925
 H        -3.3148846496       -8.1439812408       -3.7555752770
 H        -2.5911080035       -6.5677099929       -3.7849343402
 H        -2.1194870494       -8.5630476071       -8.5162140713
 H        -3.6154302499       -7.7511043559       -8.1566630562
 H        -3.3798248042       -9.3467652926       -7.5439493970
 H        -1.9660660240       -9.4354338815       -5.1383310245
 H        -0.9217833243       -9.3050580732       -6.4943080169
 H        -0.6713861292       -8.2714886768       -5.1453818656
 H        -5.0721987371       -6.7826879446       -2.5651683232
 H        -5.4765085150       -6.5031871218       -4.3188107602
 H        -6.6073108269       -2.0442151172       -4.4645022554
 H        -7.2214126384       -1.2974062075       -2.9475960069
 H        -7.0413766619       -4.6528099550       -3.9520738708
 H        -7.7265206558       -3.4723343416       -3.0439564349
 H        -7.5187560599       -5.2081447515       -2.4332076046
 H        -5.9134450304       -3.4186998776       -0.6295263408
 H        -5.2196589867       -5.0578451285       -0.8114281695
 H        -4.1948558052       -3.7501528845       -0.9702107289
 H        -6.3147917254        0.6105903651       -4.0420557446
 H        -5.1949438748        0.0117640298       -2.7522384434
 H        -2.1725302096        2.8313970660       -2.5603272797
 H        -2.5611642824        1.5862791231       -1.2110151135
 H        -2.9212817445        1.2778963531       -6.5940959247
 H        -1.8550314843       -0.0376829812       -5.8824672247
 H        -1.4645312251        1.6924957459       -5.5363602709
 H        -3.3595283133        3.2275342569       -4.5465615767
 H        -4.9453392814        2.3069676879       -4.8957207101
 H        -4.3181009814        2.7088306703       -3.2925131283
 H         0.0021612331        0.6344198989       -1.6887940410
 H        -0.3988483934        1.8761286099       -0.6198939244
 H         4.4862112289        3.5460568531       -1.2073762710
 H         3.3705471113        4.8315914547       -0.5294769415
 H         2.3372818475        0.4587150840       -3.0538371127
 H         2.3479340128        0.5040561447       -1.3288590191
 H         3.6570055004        1.2920033876       -2.3559922335
 H         2.2299730238        2.8940547000       -4.2708030299
 H         1.9592056223        4.4299528089       -3.4480643100
 H         3.5006186682        3.5580327341       -3.2867186205
 H         4.9079939701        4.1604072917        1.1711154843
 H         3.1680873783        3.3902852007        1.5705536660
 H         3.1276552781        2.1200862960        4.4758113328
 H         4.3793341436        2.0128440377        5.5058746132
 H         4.8127706771       -0.1773998650        2.0823853845
 H         3.6897594302        0.5340245478        3.0114498813
 H         5.2264418324        0.1487137371        3.8209564712
 H         7.4054102219        2.6739947819        2.7088580885
 H         7.1744876525        1.1670218805        3.6677076350
 H         7.2470566962        1.1875837630        1.7630810292
 H         3.1283040233        4.6464231379        4.6435616571
 H         4.4320299681        4.6642715510        5.7729471300
 H         0.1030120686        4.7915087928        7.7261372296
 H        -0.5453050604        3.4230392130        8.5592506585
 H         1.6529568500        0.8956548054        6.7016141123
 H         0.4621576430        2.1716463348        6.4522772343
 H         0.5879834410        1.2056564492        7.9117935884
 H         3.9643211829        3.0000119151        8.7774626375
 H         3.0832380739        1.4838522706        8.9184340703
 H         4.1744280215        1.8436362742        7.4743112087
 H        -0.0773684749        4.8075359912       10.9394375573
 H         0.0719680411        6.2384460647        9.9924423474
 H        -3.2278778183        5.4944314928       13.1649803994
 H        -1.7289476978        4.7801472714       13.1904887313
 H        -1.9205999442        6.2462523877       14.1010301334
 H        -0.7245623733        7.9165562319       10.3233300547
 H        -2.3249462181        8.6824322460        9.9805748830
 H        -1.7277016333        7.5721018022        8.7701991713
 H        -4.2072875193        6.8767639061        9.7282860440
 H        -4.4438340743        5.9436333302       11.0785341887
 H        -4.2320607393        7.6619949794       11.2785810982
 Na       -2.2684416022       -2.1764852837       -4.2117112422
