155

 C         1.9838157673       -4.4362300630       -4.9116143780
 C         0.9078681085       -3.3706250487       -4.9600065746
 C         0.6092751901       -2.7752429171       -6.4141926178
 C        -0.8268145557       -3.3657065449       -6.8937042976
 C        -0.8222954838       -4.2607284600       -8.1333056678
 C         0.4209436487       -1.2719785783       -6.1787260012
 C         1.8941570384       -2.7954040578       -7.3630994245
 O         0.3009125413       -3.1068259346       -3.9254739700
 O        -1.8843088766       -3.0281965151       -6.4467885555
 C        -1.5456118991       -5.5858094404       -8.0531089729
 C        -1.2392508965       -6.3368374545       -6.7778216936
 C        -2.2343246160       -7.4580689555       -6.3414042877
 C        -3.4822575477       -6.7459632795       -5.5753334162
 C        -3.6087921563       -7.2704270845       -4.1225156591
 O        -0.1567438309       -6.0917411467       -6.2052182331
 O        -4.1077358144       -5.9109589575       -6.1017757124
 C        -2.7336442619       -8.1023224348       -7.7572300790
 C        -1.5248098069       -8.5276577971       -5.5719610570
 C        -4.7485437627       -6.5471214587       -3.4128551755
 C        -4.4101198052       -5.0527437160       -3.2796237186
 C        -5.4580890551       -4.0489909794       -2.6143502822
 C        -5.0612487677       -2.5228523270       -2.9157240530
 C        -6.2286096792       -1.6342845917       -3.5133833483
 C        -6.9305179918       -4.2400928232       -3.1700647644
 C        -5.3500774281       -4.2962577344       -1.0607975142
 O        -3.2970404939       -4.6585359054       -3.6358458911
 O        -4.0957042844       -2.1130732278       -2.3776773698
 C        -5.7780309604       -0.2778615828       -3.7304438970
 C        -4.3449519381       -0.2135004592       -4.3709960621
 C        -3.2602435298        1.0279732175       -4.2307985201
 C        -2.3360042314        0.6304495824       -3.0204085818
 C        -2.1231467597        1.5783139878       -1.9402689353
 O        -4.1538452932       -1.0976720806       -5.1723178905
 O        -1.6299511483       -0.3368760008       -3.2694660644
 C        -2.4378140551        1.0115053837       -5.4581995814
 C        -4.0589051546        2.2739321634       -4.1569386767
 C        -0.6456553780        1.7559234211       -1.5160797590
 C         0.3443040233        2.4331190459       -2.5278218692
 C         1.8134148754        2.4290877136       -2.2130641274
 C         2.1767988804        3.1775977433       -0.7759665790
 C         3.7298373602        3.4274702445       -0.6311012376
 C         2.1785265083        0.9339468460       -2.1606486123
 C         2.5643838150        3.2575827007       -3.2729295895
 O        -0.0985957015        2.9906591891       -3.5061540475
 O         1.4128195827        3.5167614387        0.0630885182
 C         4.1600041805        3.4205567176        0.9640110148
 C         4.9713446198        2.1470524318        1.2377150130
 C         5.4669656444        1.8664487347        2.7391872084
 C         5.0143708148        3.0584824901        3.6793647222
 C         3.7936595349        2.9835978256        4.6390873904
 O         5.2580853333        1.2875194681        0.3811685681
 O         5.7749197750        4.0103985122        3.6455817682
 C         4.7403491561        0.5245293805        3.1303848892
 C         7.0152989064        1.8172207320        2.7490137107
 C         3.7693381682        4.1220930793        5.6686239090
 C         2.3912892444        4.0271733849        6.3244726196
 C         2.0562192135        3.0726048046        7.4898882868
 C         1.5083525353        3.8648770522        8.7772457159
 C         0.1299426802        4.4832128129        8.5534233264
 C         0.9247423509        2.0593944400        7.0046681298
 C         3.1847307468        2.1257511680        7.9469593604
 O         1.5215587202        4.6516447957        5.7263275879
 O         2.2926087303        4.0169175661        9.6595749070
 C        -0.4317513893        4.9350124732        9.9431975778
 C        -1.9484745957        5.4231146002        9.8547915420
 C        -2.4339410389        6.6780472874       10.6065447802
 C        -1.8684989677        6.4328848321       12.0412000350
 C        -2.7933124222        5.6223866096       12.9258528994
 O        -2.8031855438        4.8140385518        9.1950240770
 O        -0.7743446150        6.7762402650       12.4465144760
 C        -1.6594538244        7.9785129964       10.2565964411
 C        -3.8981174340        6.9180335762       10.3107121162
 H         2.4734415905       -4.4066779207       -3.8621533025
 H         1.2836419711       -5.2829846372       -5.0668191576
 H         2.5981475932       -4.4275573507       -5.7882692444
 H        -1.2404141425       -3.6864945345       -8.9061655501
 H         0.2757605130       -4.3588065251       -8.3167304723
 H        -0.4651151580       -1.1886300109       -5.5727905229
 H         0.2427569819       -0.7316850102       -7.0842381014
 H         1.3071134139       -0.9048079807       -5.6521664650
 H         2.7740310351       -2.3784446703       -6.7469832889
 H         2.0932615746       -3.8541579261       -7.4714915553
 H         1.7124570241       -2.2852058394       -8.2787868552
 H        -2.5863993665       -5.3920525501       -8.3477415348
 H        -1.2505306618       -6.2602898446       -8.8751132263
 H        -3.6358100601       -8.3191033660       -3.9774571399
 H        -2.7489978159       -6.8326589652       -3.6513086926
 H        -1.8970131339       -8.5641791141       -8.2631260808
 H        -3.1777269457       -7.4332899318       -8.3888270686
 H        -3.4780621142       -8.8497439528       -7.6068330193
 H        -2.0331062268       -9.4235747399       -5.2911020421
 H        -0.6776535527       -8.8226946257       -6.1436052563
 H        -1.1884874860       -8.1273870524       -4.6396533492
 H        -4.9687283014       -6.9835486686       -2.3997958324
 H        -5.6446786051       -6.6381971787       -4.0343252704
 H        -6.6101994596       -2.1030713201       -4.4164916919
 H        -6.9696084303       -1.6378153057       -2.7108016583
 H        -6.9543368819       -4.0770924990       -4.2691998216
 H        -7.5380860592       -3.4392742978       -2.7741475674
 H        -7.3816007588       -5.1126036081       -2.9517512593
 H        -6.3310283608       -3.8758103930       -0.7362691524
 H        -5.3913703443       -5.3663035305       -0.9283804878
 H        -4.4425653428       -3.9115522873       -0.5258930769
 H        -6.4939115218        0.3195917880       -4.3834195539
 H        -5.7380633017        0.2358065547       -2.7707231630
 H        -2.6225803978        2.5025041737       -2.2595701081
 H        -2.6480295094        1.1890281533       -1.0037954154
 H        -3.0492963590        1.3451369577       -6.3188021560
 H        -2.2850208116        0.0070753259       -5.7243700897
 H        -1.6236950998        1.6794556416       -5.4083101305
 H        -3.4169533215        3.1801073108       -4.3049177641
 H        -4.7863141788        2.2546018380       -5.0165646685
 H        -4.5667765475        2.4477515605       -3.2212461020
 H        -0.2488983998        0.7957883038       -1.1307771954
 H        -0.5195877969        2.4526700176       -0.6625293512
 H         4.1535711877        2.5632003952       -1.0626074755
 H         4.0673272404        4.3202556573       -1.1004374289
 H         2.1634783510        0.3782757117       -3.1364928767
 H         1.5248356339        0.5063307532       -1.4332357389
 H         3.2030341146        0.8265114095       -1.9046550228
 H         2.4044076541        2.9761660724       -4.3037484615
 H         2.2057367281        4.3281230163       -3.1433046325
 H         3.6186895208        3.2473700482       -3.0955816469
 H         4.7523896367        4.3108555714        1.2025545704
 H         3.2358022064        3.3747197299        1.5857938144
 H         2.8705734401        2.8247937575        4.1126480026
 H         4.0125795456        2.0100605335        5.1444005724
 H         5.2932126638       -0.2783762978        2.6516052738
 H         3.6776164620        0.4480470755        2.7772783264
 H         4.7428789062        0.1918063724        4.1481359719
 H         7.3242201986        2.8111978480        2.5781954989
 H         7.3815206433        1.4619626704        3.7775910316
 H         7.3963542423        1.1575805038        1.9540351645
 H         3.9590661080        5.0869648991        5.2104100848
 H         4.7150499174        4.1452492670        6.2456769774
 H         0.2588485687        5.3866403826        7.9386342754
 H        -0.6479674384        3.8052379846        8.1411271979
 H         1.1335149351        1.5643824849        6.0468096774
 H        -0.0324324240        2.5474392786        6.7621493045
 H         0.6030352201        1.3215456939        7.7577083850
 H         4.0902961922        2.5948752281        8.3624205522
 H         2.7935653835        1.5720195904        8.8578105995
 H         3.5059576570        1.4771623329        7.0444134800
 H        -0.4327056747        4.0203021054       10.5735797357
 H         0.0749612802        5.7852652294       10.4303576977
 H        -3.4879019111        6.2167567253       13.4268582613
 H        -3.3659886128        4.9030064670       12.2622291264
 H        -2.3173107323        4.9621877431       13.6971381099
 H        -0.5743268197        7.9475583908       10.4093116400
 H        -1.9706625981        8.6241817810       11.0637554776
 H        -1.9793282660        8.3316904561        9.2502992957
 H        -3.9951680044        7.3148448432        9.3536542616
 H        -4.5991086147        6.0813831552       10.4829443802
 H        -4.2437147922        7.7455407839       10.9564864449
 Na       -2.2330136333       -2.5569479936       -4.0468501641
