155

 C        -2.8286789921       -9.3365706473        2.5250408404
 C        -1.3245682404       -9.5064436366        2.6385419159
 C        -0.4178328668       -8.2529603199        2.7707519065
 C        -1.1026085823       -7.0640982852        2.1657453568
 C        -1.4917896373       -7.0874051149        0.6302131241
 C        -0.0214273821       -8.1185960994        4.2621921025
 C         0.8527838176       -8.6860279617        1.9356113279
 O        -0.8460366710      -10.5887181456        2.7257678255
 O        -1.3475642857       -6.0064428573        2.7337567462
 C        -0.6571004684       -6.0042272041       -0.1354051095
 C        -1.0041105587       -5.7485351208       -1.6506493419
 C        -1.3137341057       -4.2939379868       -2.1716449684
 C        -0.3351399101       -3.1595555864       -1.6537469113
 C         0.9033083932       -2.9450643977       -2.4655476591
 O        -0.9374390145       -6.6707184836       -2.4697912638
 O        -0.4768269578       -2.5929160833       -0.5451217578
 C        -1.3791361553       -4.3367923311       -3.7808503607
 C        -2.8217534883       -3.9854183517       -1.6316300630
 C         2.0584965871       -2.1814607387       -1.7829193819
 C         1.9963047404       -0.6205461920       -1.7095960675
 C         2.9377846210        0.2314280943       -0.8672635576
 C         3.5952827297        1.2858940491       -1.8909807746
 C         4.9982599209        0.9401202008       -2.3880224848
 C         2.1238114669        1.0200716519        0.1476164285
 C         4.0173806342       -0.6708007982       -0.1746062592
 O         0.9724735658       -0.1745805572       -2.2552341555
 O         2.9789735262        2.2428359687       -2.3044990449
 C         5.4447279043        1.7942750641       -3.5568326698
 C         5.0730868741        1.1783177369       -4.9324561396
 C         5.4913012949        1.7967061615       -6.3164339964
 C         4.0704117867        2.5191542469       -6.5192104279
 C         3.0231755468        1.7626582507       -7.3083617746
 O         4.4268934147        0.1617595571       -4.9898229794
 O         3.7374666707        3.5572708509       -5.9834330833
 C         6.5993894818        2.8891416437       -6.3196515299
 C         5.8653435505        0.6410879293       -7.2631322655
 C         1.6279539888        2.4720875266       -7.2878895259
 C         0.8089910672        2.7081319046       -5.9660587542
 C        -0.3090558140        3.7714966889       -5.9912179559
 C        -1.2745763922        3.5524968685       -4.8805768181
 C        -2.2271787812        4.6606570642       -4.4259498138
 C         0.6108940163        5.1563203188       -5.9920892398
 C        -1.1706823042        3.7809933879       -7.3150942573
 O         1.1297923211        2.0974303842       -4.9804012851
 O        -1.5486677046        2.4437225224       -4.4351152813
 C        -2.5135475211        4.5336369448       -2.9499672188
 C        -1.2175631997        4.5340973855       -2.1548235215
 C        -1.3938812189        4.3250317682       -0.6609527357
 C        -1.7455967482        2.8060609733       -0.5722106900
 C        -3.1022002335        2.2750153513        0.0511239341
 O        -0.1253102562        4.4745684034       -2.7347097301
 O        -1.0240868753        1.9448247222       -1.0954290939
 C        -0.0488693303        4.5503935277       -0.0674529397
 C        -2.4218186125        5.2521081780        0.0519029401
 C        -3.2558400662        2.3329151639        1.5995687887
 C        -2.0081471454        2.6658946951        2.4117008367
 C        -2.2320296053        3.0976570519        3.8557328951
 C        -2.9654395560        1.9171130498        4.6908504751
 C        -2.7183110815        1.9356865543        6.2047590466
 C        -0.8887174427        3.4255261451        4.5306892028
 C        -3.2580531891        4.2588337241        3.8966522707
 O        -0.8608406126        2.6018535208        1.9823379281
 O        -4.0026084134        1.3905038498        4.2573643870
 C        -3.6139605051        0.9906366958        6.9577689756
 C        -2.9415983427        0.4434052942        8.3248195015
 C        -3.8752455734       -0.0367268647        9.4700404511
 C        -4.6518164831        1.1602231898       10.2689404648
 C        -5.7879108643        0.6994724322       11.2241913022
 O        -1.7083077648        0.2429269573        8.3023353374
 O        -4.4588748037        2.3161276135        9.9970546358
 C        -5.0082760744       -0.9336083380        8.9112270654
 C        -2.9007766570       -0.6745097394       10.4743009800
 H        -3.1639216251       -9.9015770425        3.3567698224
 H        -3.0053589046       -8.1840532005        2.5772997598
 H        -3.0903689631       -9.7677549062        1.5412170465
 H        -1.3611839783       -8.1191714982        0.1960017298
 H        -2.5404257986       -6.7519305390        0.6098864302
 H        -0.8609775936       -7.9205586150        4.8799291714
 H         0.7725892203       -7.3775195703        4.3974705773
 H         0.3155869102       -9.0459266213        4.6632468484
 H         0.5640444776       -8.4764228960        0.9664158995
 H         1.7795445687       -8.2120007211        2.2468889374
 H         0.8851545319       -9.7965605294        2.0665695331
 H        -0.6184187927       -5.1555067296        0.4376691410
 H         0.3864624184       -6.2775076373       -0.1454599530
 H         1.3382334679       -3.9017025015       -2.7951987728
 H         0.5514611031       -2.3718190057       -3.3194145484
 H        -1.9471277758       -3.4273860586       -4.1060683669
 H        -1.9550715343       -5.2227783127       -4.0816106355
 H        -0.4293002641       -4.2653866772       -4.3557887421
 H        -3.3535776062       -4.9009492748       -1.3937543712
 H        -2.6118612681       -3.2918329272       -0.8017102018
 H        -3.3925978254       -3.5305531236       -2.4293841955
 H         2.8986548052       -2.3299244236       -2.3674617569
 H         2.3074566213       -2.7828028860       -0.8924160003
 H         5.7301268908        1.0377629974       -1.5670664435
 H         5.0960785593       -0.0999289050       -2.7484454640
 H         1.3233121675        1.5791351577       -0.3713335080
 H         2.6676340746        1.5033278606        0.9339829456
 H         1.4918134010        0.2490214191        0.7309554995
 H         3.5753441848       -1.2642621608        0.6364568524
 H         4.4865026735       -1.3836462120       -0.8338804053
 H         4.8640773315       -0.2456078983        0.3506449286
 H         4.9551540698        2.7913625517       -3.4167993471
 H         6.5067223527        1.8739853173       -3.6535808048
 H         3.2813394915        1.7085177625       -8.3868689770
 H         2.9261530637        0.6879136412       -6.9291599781
 H         6.6886136158        3.3288362266       -5.3424844898
 H         6.4109454365        3.6737673221       -7.0710372366
 H         7.6000754482        2.6179070282       -6.5194647277
 H         5.0118753336        0.2342412219       -7.8873284057
 H         6.6438204048        0.9819392901       -8.0020164131
 H         6.3680462898       -0.1646810097       -6.6921969297
 H         1.0462550382        1.9756967777       -8.1051343607
 H         1.8064132953        3.4690130398       -7.6400932171
 H        -1.7133676770        5.6109653730       -4.4292408555
 H        -3.0966797647        4.6390324255       -5.1025179870
 H         1.2290063877        5.1537419979       -5.1801087202
 H        -0.0232142039        5.9829349602       -6.2624987819
 H         1.2340368879        5.0502237231       -6.8524107994
 H        -1.8858586930        4.6747638690       -7.2941990061
 H        -0.5304106087        3.9087129411       -8.1638824146
 H        -1.7377396586        2.8824646690       -7.4538816301
 H        -3.0262974579        5.4320038016       -2.5405548790
 H        -3.0503593914        3.5842989348       -2.7681301426
 H        -3.8949398842        2.8688694309       -0.4874433033
 H        -3.1857717614        1.2699122053       -0.2667180477
 H         0.5587588205        3.7398904413       -0.4368211525
 H        -0.0518884312        4.6234287093        1.0521463640
 H         0.3998367744        5.4124433751       -0.5222604978
 H        -2.5112534758        5.0564596329        1.1078766391
 H        -2.2260059116        6.2953664046       -0.1267836976
 H        -3.5085199204        5.1784823872       -0.1655889162
 H        -3.7591514596        1.3859243791        1.8274874113
 H        -4.0733044796        2.9535763690        1.8987265164
 H        -1.6781421161        1.5961213827        6.3325727773
 H        -2.9115664017        2.9683467643        6.5783911862
 H        -0.2505760260        2.5388227962        4.6665313415
 H        -1.1584094760        3.6931022362        5.5568456962
 H        -0.2299526746        4.1195730866        3.9827991659
 H        -3.4790115848        4.6047485454        4.9621359735
 H        -2.8721137863        5.1656080972        3.4574471979
 H        -4.1928264636        3.9126968737        3.3727809921
 H        -4.5934341424        1.5355444365        7.2000381648
 H        -3.6867385528        0.0224143586        6.3904315920
 H        -5.4297721064        0.0668333069       12.0461596336
 H        -6.1534018266        1.7016766641       11.5998146793
 H        -6.6571843770        0.1936600074       10.7722511596
 H        -5.7869914118       -1.1862653326        9.6331603646
 H        -4.7074293965       -1.8811477821        8.4603353225
 H        -5.5457984324       -0.4151246640        8.1222397421
 H        -3.5112077483       -1.0067816272       11.3142181652
 H        -2.3165008932       -1.5295588189       10.0580255138
 H        -2.2360646022        0.0755694120       10.7592448538
 Na        0.5443118555        2.1251247234       -2.7048259419
