155

 C         1.9973584939       -3.5744254307       -3.7379685961
 C         0.8084128304       -2.9835563794       -4.3490834103
 C         0.9489761177       -2.2161796075       -5.7315542356
 C        -0.2531137941       -2.8848687741       -6.5775652513
 C         0.2569535086       -3.8219347063       -7.7114912233
 C         0.4097591605       -0.8087688762       -5.5573365825
 C         2.3163171607       -2.3515980116       -6.4867989926
 O        -0.2376498497       -2.9342309871       -3.7032896275
 O        -1.4148192772       -2.6806389305       -6.4324773360
 C        -0.7300611678       -4.9362302205       -8.1128442791
 C        -0.6472768087       -5.9644674865       -6.8361515181
 C        -1.2586187017       -7.4339628216       -6.8937048757
 C        -2.7011635848       -7.3010517673       -6.1159978837
 C        -2.4846702642       -7.0826120263       -4.5678268479
 O        -0.1284502404       -5.6123968518       -5.8516479355
 O        -3.7572252374       -7.1309789835       -6.6212158662
 C        -1.5244852934       -7.8527866448       -8.3275637248
 C        -0.3158883381       -8.3775788862       -6.1885950411
 C        -3.7481128171       -6.6789770986       -3.9073055979
 C        -3.7935226898       -5.0536223424       -3.5165617563
 C        -4.6935186260       -4.4423115426       -2.4754018843
 C        -4.6542604515       -2.9036632333       -2.6078590075
 C        -5.4824313065       -2.1153827678       -3.5875004501
 C        -6.0359501223       -5.1908319992       -2.5917416876
 C        -3.9948541317       -4.8293330846       -1.0965221645
 O        -3.3231523286       -4.2411668728       -4.2590510285
 O        -3.9741267350       -2.3024615554       -1.8132632129
 C        -5.3942209065       -0.6014086379       -3.3166557415
 C        -4.3683953644        0.1913549021       -4.1762027437
 C        -3.7633589612        1.5902941381       -3.5074730289
 C        -2.4846949837        1.2417528748       -2.6706024672
 C        -1.8797580929        2.2872897517       -1.7378612563
 O        -3.8644348217       -0.2675516790       -5.2182490948
 O        -1.9477830010        0.1491603273       -2.7423890522
 C        -3.2379692985        2.3968373671       -4.6669203556
 C        -4.9468465397        2.2492171895       -2.6415999712
 C        -0.4200116462        1.9771957378       -1.2408856898
 C         0.5144345358        1.8641109907       -2.3793450593
 C         2.0249479610        1.4719952455       -2.0385869840
 C         2.6742117785        2.7369804069       -1.2861064469
 C         4.1620706852        2.7973837027       -0.8571036493
 C         2.1428785186        0.1268386357       -1.2226609739
 C         2.7324740757        1.2231947151       -3.3070408013
 O         0.0754008878        1.7831680718       -3.4737440307
 O         1.9894493250        3.7448738905       -1.2530003924
 C         4.5293013438        3.2148078409        0.6583203552
 C         4.3976788511        2.0265527134        1.5613045098
 C         5.3904298701        1.8750340844        2.7486052915
 C         4.9581933003        3.0805858187        3.6081249637
 C         3.6232685217        2.9010509679        4.3716292729
 O         3.4445975427        1.1898452324        1.4817617095
 O         5.7180572261        4.0246844238        3.7581377660
 C         5.2399714522        0.4292156172        3.3699083693
 C         6.8167608719        2.0306670978        2.2495537761
 C         3.1520232207        4.0697717456        5.2182861814
 C         1.6193956251        3.8670381313        5.6431395873
 C         1.2645709524        2.9220068172        6.9152935951
 C         0.8630611104        3.8274761758        8.1554237227
 C        -0.5987132507        4.5577766318        8.1792184811
 C         0.2537709015        1.9019130871        6.5139923053
 C         2.6291645518        2.2600639376        7.4680216756
 O         0.7545005228        4.4203878279        5.0584339306
 O         1.7053574151        4.0175599959        8.9582970980
 C        -0.8396055745        5.3796287293        9.4999365064
 C        -2.2857787192        6.1241190145        9.4260172002
 C        -2.9659653731        6.5694875145       10.8413366809
 C        -3.4757255079        5.3563064871       11.7067148348
 C        -4.9548038869        5.6209275820       12.2776460480
 O        -2.8167563025        6.5850869256        8.3873064053
 O        -2.9353250957        4.2941947755       11.6565003946
 C        -1.7055510969        7.2504940789       11.6235292857
 C        -4.0172152306        7.7112969268       10.6849594416
 H         2.5778877796       -4.1239726361       -4.5437392766
 H         2.6840408095       -2.8276998800       -3.3464860669
 H         1.6051828665       -4.1584076893       -2.9253274979
 H         0.4673165505       -3.0662936260       -8.5400033659
 H         1.2024176065       -4.2528979629       -7.4468658926
 H        -0.0191642260       -0.5970184331       -4.5470625190
 H        -0.4216728101       -0.6578074296       -6.2556953590
 H         1.0815468980        0.0364500721       -5.6602863860
 H         2.9714162640       -1.6039115956       -6.2461707820
 H         2.7541578229       -3.3538797784       -6.3326298159
 H         2.3198853079       -2.3522143377       -7.6015318870
 H        -1.7895507321       -4.5350186025       -8.0996420770
 H        -0.3787510258       -5.2858323998       -9.0416468510
 H        -2.1778966146       -8.0367538504       -4.1573897797
 H        -1.6750840420       -6.4009545652       -4.5039922263
 H        -0.5915648789       -7.5473118544       -8.8269817446
 H        -2.2627967961       -7.2347535796       -8.7067742973
 H        -1.7034703567       -8.9544104515       -8.4521555361
 H        -0.5975256884       -9.4315765301       -6.3927330586
 H         0.6770111858       -8.2335467326       -6.7155082497
 H        -0.1333093399       -8.1353461238       -5.1281862482
 H        -3.8943131292       -7.1395283029       -2.9679137065
 H        -4.5572441091       -6.8384995619       -4.6404894735
 H        -5.2301835975       -2.1727620013       -4.6621650517
 H        -6.5131825546       -2.5190135876       -3.5633654077
 H        -6.4948208604       -5.2420243183       -3.5864990721
 H        -6.6673642627       -4.9585010200       -1.7276847423
 H        -5.8485620966       -6.2405821747       -2.4408558749
 H        -4.3915868304       -4.2287537744       -0.2914409250
 H        -4.0185855738       -5.8807722899       -0.7381318490
 H        -2.9731558757       -4.5594994013       -1.2368124412
 H        -6.2765814502       -0.1417143923       -3.7252807698
 H        -5.2384716373       -0.3378217310       -2.2294846791
 H        -1.9874525211        3.2722065636       -2.2982438540
 H        -2.5930536694        2.2992611953       -0.8696088300
 H        -4.0095883000        2.6486928613       -5.3175933154
 H        -2.5706673937        1.7592737476       -5.2545707388
 H        -2.8129336417        3.3300837556       -4.4374029793
 H        -4.6063642886        3.2070927052       -2.2440881899
 H        -5.8093003264        2.4921656476       -3.1783618802
 H        -5.3584455711        1.4771546575       -1.9062246258
 H        -0.4916315808        0.9468391673       -0.7303840958
 H        -0.2452784686        2.7061166896       -0.4299511968
 H         4.5294982327        1.8400570412       -0.9854436210
 H         4.6088083959        3.5766354782       -1.4485433012
 H         1.3966448259       -0.4967113444       -1.6268806681
 H         2.0982137121        0.3972110504       -0.1603768955
 H         3.1593998383       -0.2701450586       -1.4536954991
 H         2.5323563167        0.2014295858       -3.5903483559
 H         2.2643126849        1.8308357844       -4.1756299938
 H         3.7422341016        1.4129941318       -3.3542619410
 H         5.5627716537        3.6346502283        0.6436314164
 H         3.7684204417        3.9227339632        0.9407565619
 H         2.8530687919        2.4881532843        3.7127784192
 H         3.8942073415        2.0534081596        5.0070330537
 H         6.0173341142       -0.2156917668        2.9022933166
 H         4.2794712618        0.0018756051        3.1764869603
 H         5.4246345629        0.2530845553        4.4511655634
 H         7.1520908485        3.0344265668        1.8798921997
 H         7.5648933139        1.7403651802        3.0122752359
 H         7.0679601048        1.3217801617        1.5114983257
 H         3.2324283528        5.0751730862        4.7472659939
 H         3.7337998876        4.2979272437        6.0830644771
 H        -0.4944812808        5.2535420685        7.3165961167
 H        -1.3203342205        3.8955403497        7.8129842890
 H         0.6881268684        1.2854636488        5.7248012682
 H        -0.6135464284        2.4164468084        6.2300228614
 H        -0.0140865690        1.2888610233        7.3532508790
 H         3.4355517666        2.9485992744        7.6764351853
 H         2.4497070911        1.5675712408        8.2701916233
 H         3.0787829818        1.5839866180        6.7694961262
 H        -0.8185430690        4.6670359284       10.3219462120
 H        -0.0745042673        6.1073815126        9.6666482011
 H        -5.4287434770        4.7545573040       12.6853665156
 H        -4.8445201043        6.3188814715       13.2046286800
 H        -5.6326066856        6.1688492833       11.6553029393
 H        -1.3143960030        6.5476589361       12.3710660691
 H        -2.1419991700        8.1210856787       12.1062820300
 H        -1.0733443882        7.6533842133       10.8715544729
 H        -3.5508199695        8.4248632571        9.9322966587
 H        -4.9487525170        7.4559042492       10.2340535992
 H        -4.1770416560        8.1609517554       11.6481025682
 Na       -2.2639059037       -1.8040828171       -4.3060746739
