155

 C         2.9726488647       -3.1394796980       -4.4428229433
 C         1.5489933680       -2.6072361128       -4.7115703690
 C         1.1500083357       -1.8182594969       -6.0611371653
 C         0.0500684319       -2.6537586773       -6.7201896365
 C         0.2737388980       -3.1919378252       -8.1266674009
 C         0.5514881251       -0.4707694878       -5.5360128381
 C         2.5030899811       -1.7127007096       -6.9842388982
 O         0.6865053599       -2.7765209097       -3.8649987392
 O        -0.9452603711       -3.0687075427       -6.1468250935
 C        -0.5179468341       -4.4988465489       -8.3711244851
 C        -0.0206184798       -5.6219299491       -7.3555142024
 C        -0.9717327507       -6.7754416670       -7.0670328051
 C        -2.0995920260       -6.4235453865       -6.0144739037
 C        -2.2140328143       -7.1524751072       -4.6083014464
 O         1.0664388859       -5.5428776842       -6.8859564019
 O        -2.9251694929       -5.6555493158       -6.4718750939
 C        -1.7810755626       -7.1520136946       -8.4518094246
 C        -0.1944231522       -8.0038926300       -6.4770995040
 C        -3.4574708004       -6.5585604985       -3.9171948941
 C        -3.2987227481       -5.0791564952       -3.4000015008
 C        -4.3161201958       -4.6145354585       -2.3281675613
 C        -4.1397561376       -3.1029290972       -2.1646302728
 C        -5.3922595601       -2.2331059852       -2.2907580908
 C        -5.7294241961       -5.0460609153       -2.8823949867
 C        -4.0172288983       -5.3055152614       -0.9691165378
 O        -2.4847225195       -4.3712418270       -3.9886766375
 O        -3.0767200094       -2.5474749335       -1.8723890845
 C        -5.1978705886       -0.7852332073       -2.2869687633
 C        -4.2179674910       -0.4620948668       -3.4511209398
 C        -3.6202767486        0.9933965121       -3.5786230769
 C        -2.1252143461        1.0124483817       -2.8524861152
 C        -1.7821252521        2.1684328204       -1.9088838672
 O        -3.8692667589       -1.4369363819       -4.1165000615
 O        -1.4161915052        0.0585375116       -2.9550223928
 C        -3.5300983908        1.2025857220       -5.1005015691
 C        -4.6014515795        2.0555018121       -2.9593627900
 C        -0.4205048518        1.9484236469       -1.1472032724
 C         0.6242584146        1.9895915500       -2.2335285433
 C         2.1494059739        1.6471151511       -1.8086521224
 C         2.6444792195        2.4155961172       -0.5165429821
 C         4.0612110836        2.9627442301       -0.5008358082
 C         2.0995944777        0.1947037704       -1.2088353733
 C         2.9753700248        1.7893190768       -3.0277044531
 O         0.3350235200        2.0038956160       -3.4519530760
 O         1.8145180365        2.5807419711        0.3286845409
 C         4.3720794177        3.5874586248        0.8089217446
 C         5.0501121806        2.4561600819        1.7432873610
 C         5.1910073038        2.6258443488        3.3730167344
 C         3.8597469191        3.2672156428        3.8505673929
 C         3.0269185608        2.4256912067        4.9180961672
 O         5.3597029677        1.3943368299        1.2817768763
 O         3.4980441976        4.3366314941        3.4260447376
 C         5.6641264710        1.3882256286        4.1036885829
 C         6.2979163089        3.7504405274        3.7655492180
 C         1.6711699129        3.0795105493        4.9865971617
 C         0.4590692838        2.3428453622        5.7029190085
 C         0.3976502075        2.5090857657        7.3305682638
 C         0.5546946949        3.9870710717        7.8596241394
 C        -0.7179911763        4.9302009953        7.8139255585
 C        -0.9809074604        1.9566870879        7.7948839050
 C         1.5047744764        1.5747902235        8.0467298420
 O        -0.3979040538        1.6824392144        5.1713970753
 O         1.5836359543        4.4666961306        8.3129208920
 C        -1.2897560644        5.2098931628        9.1924747737
 C        -2.2735050654        6.4652850400        9.4373268561
 C        -3.5651369018        6.4026349658       10.3574698296
 C        -4.5927524753        5.5798447384        9.5471950857
 C        -6.0152829821        5.4610670700       10.0078193860
 O        -1.9487681428        7.5043058783        8.9609298144
 O        -4.3247353145        4.7687698915        8.6541861320
 C        -3.1197875256        5.5218383712       11.5907413572
 C        -4.0052403052        7.8676773299       10.8552832604
 H         3.2934045354       -3.8732748974       -5.1050686521
 H         3.7626289289       -2.4112650760       -4.4691426459
 H         2.8600240089       -3.4716771106       -3.3532413647
 H        -0.1049470513       -2.4809665448       -8.8644213072
 H         1.3103190753       -3.3461443035       -8.2002452626
 H         1.4245861864        0.2291390048       -5.2847066620
 H         0.0731453757       -0.5829038072       -4.5772384161
 H        -0.1514747057       -0.0959275615       -6.3298283608
 H         3.2171339435       -2.4617222887       -6.5718923062
 H         2.2700782947       -1.8434741722       -8.0237483968
 H         2.9052220382       -0.7863629229       -6.6935224513
 H        -1.6190253172       -4.3369006163       -8.2540983003
 H        -0.5275469776       -4.7596851071       -9.3942934064
 H        -2.4847129340       -8.2023710772       -4.8382209295
 H        -1.3291456065       -7.0755938026       -3.9008134174
 H        -1.2074286214       -7.4987467194       -9.2358017728
 H        -2.4023884246       -6.3251578454       -8.8371024615
 H        -2.5244078856       -7.8454033861       -8.1986997299
 H        -0.9318556723       -8.7994526177       -6.2926861039
 H         0.5240347196       -8.3394735288       -7.2978551832
 H         0.3440443814       -7.8708359782       -5.5288241178
 H        -3.9493378882       -7.2778192141       -3.2774897978
 H        -4.2115044911       -6.6279138489       -4.6853467964
 H        -5.9378717382       -2.4868315843       -3.2058025505
 H        -6.0534729486       -2.5549584288       -1.4437530887
 H        -5.8015796657       -4.5199101237       -3.7972296435
 H        -6.5076022943       -4.7550662634       -2.2346116806
 H        -5.7174429239       -6.1831218056       -2.9489618080
 H        -4.7712432467       -5.1663287959       -0.2402812249
 H        -3.8730665050       -6.3741527902       -1.0868942060
 H        -3.1751020208       -4.8952974169       -0.4693008215
 H        -6.1953125775       -0.2342433664       -2.3049795032
 H        -4.7978555050       -0.4758338293       -1.3509981319
 H        -1.7976633618        3.1717518874       -2.3919354867
 H        -2.5611567488        2.2351238252       -1.1915419886
 H        -4.3802115933        0.7093758115       -5.5738484257
 H        -2.7067288461        0.6869895325       -5.3991940231
 H        -3.3699879519        2.2055908112       -5.3330725086
 H        -4.1639224295        3.1014472004       -3.1122643033
 H        -5.5665542021        2.0972010194       -3.4991892931
 H        -4.6371697493        1.9700312926       -1.9379170261
 H        -0.4422283725        0.9179469213       -0.7558392260
 H        -0.2695724711        2.6784139273       -0.3853614377
 H         4.6967498890        2.0621724572       -0.6195925537
 H         4.2425158071        3.6393370918       -1.3672490693
 H         1.7229609052       -0.5911567444       -1.8050690687
 H         1.4495790392        0.2111047753       -0.3049743797
 H         3.1457978561       -0.0212254461       -0.7540572000
 H         2.5265417424        1.1264277680       -3.8198356662
 H         2.9651367293        2.7688463864       -3.3287810124
 H         4.0136881943        1.4498714678       -2.8072923645
 H         5.1942999989        4.3293403772        0.7278934374
 H         3.5341023329        4.0751083846        1.3566932178
 H         2.9485809398        1.4357341079        4.5125900806
 H         3.5068409150        2.3583915181        5.8790761780
 H         6.5557307424        1.0428209579        3.5678985069
 H         4.9496514145        0.6470524421        3.8360905064
 H         5.6991742117        1.6349031731        5.1727896866
 H         6.1313488523        4.7617194968        3.4344030944
 H         6.3089587586        4.0374619884        4.8855772797
 H         7.2384913713        3.4034431317        3.3936940330
 H         1.3118479996        3.1133072286        3.9154713481
 H         1.6340873656        4.1326451527        5.2593505547
 H        -0.4815272254        6.0051104943        7.4456034583
 H        -1.4858765202        4.5233074473        7.1032262393
 H        -0.9770415433        0.9720470559        7.3226538518
 H        -1.7717361357        2.4100500209        7.2850280381
 H        -1.1175111553        1.9550674621        8.8634878299
 H         2.2849188367        1.3097041683        7.3496483355
 H         1.8976532314        2.1516183192        8.8701464144
 H         1.0582630844        0.6170366950        8.2563715767
 H        -1.8697637909        4.3297167462        9.5915244139
 H        -0.5701408383        5.2433735918       10.0283468341
 H        -6.7744490626        5.2874017101        9.2119351266
 H        -6.0566928177        4.6565360322       10.7576186347
 H        -6.1956959110        6.4433973569       10.5095672188
 H        -3.1149583726        4.4259032475       11.4529623886
 H        -3.6429784651        5.7441243522       12.4819800985
 H        -2.0661445468        5.6478880617       11.7961394220
 H        -3.7839764427        8.6252588141       10.0466551215
 H        -5.0110722251        8.0004877110       11.2034693396
 H        -3.2747570856        8.1143923606       11.6260519380
 Na       -1.6379879156       -2.2241790648       -3.9442231902
