155

 C         3.0341620356       -3.2748007027       -4.8472066766
 C         1.6566069905       -2.4594181764       -4.7180555498
 C         1.1665147547       -1.6013301627       -5.9018373852
 C        -0.0681575142       -2.3540262654       -6.5880348124
 C         0.1214388572       -3.0488367117       -8.0005396313
 C         0.6384685298       -0.3225622480       -5.2712141837
 C         2.3358263586       -1.3461669579       -6.8977438528
 O         0.9144715801       -2.7004155292       -3.7421494049
 O        -1.1490594642       -2.4014206370       -6.0435602381
 C        -0.7883228593       -4.2283227587       -8.1246036925
 C        -0.2189350466       -5.5764664156       -7.4298945665
 C        -0.9736167766       -6.9867955291       -7.2833146653
 C        -2.1724802038       -6.5795804052       -6.3548220122
 C        -2.0749894604       -7.2327801843       -4.8664943941
 O         0.8294262670       -5.3734952076       -6.8643890796
 O        -3.0474984501       -5.7975697912       -6.6330474462
 C        -1.6633014092       -7.4855299390       -8.5206517507
 C        -0.0193358544       -7.9903143732       -6.6377072736
 C        -3.1641417046       -6.7180672006       -3.8577431555
 C        -3.0521579911       -5.1572103772       -3.4693497435
 C        -4.1933313665       -4.6875764264       -2.3109873553
 C        -4.0828250971       -3.0804691035       -2.1821946167
 C        -5.2969479846       -2.1322345970       -2.0633442950
 C        -5.7290384029       -5.0942736022       -2.6348952087
 C        -3.6298226123       -5.2760116776       -1.0301056179
 O        -2.0224257617       -4.5983981806       -3.6594007427
 O        -2.9913617774       -2.5330030497       -1.8620280938
 C        -4.9617126999       -0.6650875722       -2.3602175656
 C        -4.1077565173       -0.4484813927       -3.5846275870
 C        -3.3493920283        0.9516772303       -3.7353994993
 C        -2.1581661596        0.8121454089       -2.6612902947
 C        -1.7744174040        1.9302656205       -1.6899618338
 O        -3.9548203400       -1.3423450212       -4.4153261396
 O        -1.5866202728       -0.2574610615       -2.5800092382
 C        -2.7229505388        1.3362149118       -5.1304960697
 C        -4.2692276379        2.0650793849       -3.4291867210
 C        -0.3856040593        1.6184397908       -0.9777989920
 C         0.7136325579        1.7132711956       -2.1232621341
 C         2.3085101774        1.6179066849       -1.7592386394
 C         2.5584563910        2.4753627283       -0.4673236088
 C         4.0169373009        3.0070133131       -0.4329695107
 C         2.5108569158        0.1329325810       -1.3729410644
 C         3.1421034556        2.1358276480       -3.0140222360
 O         0.4799881635        1.9920094357       -3.2846526755
 O         1.8428656316        2.4433203895        0.4902722217
 C         4.4887513496        3.5698166319        0.8379377111
 C         4.9534863518        2.3919638179        1.7635038328
 C         4.9589361172        2.8800521541        3.3005377897
 C         3.5166941967        3.3603585380        3.7589644884
 C         2.6131899283        2.3664428307        4.6201821395
 O         5.4852706696        1.3889833117        1.3434902460
 O         3.1339220356        4.4977522153        3.4573095196
 C         5.3933355823        1.6340941371        4.2829319072
 C         5.8674397426        4.0418383709        3.4777694674
 C         1.3566997160        3.0247000314        5.1165929288
 C         0.3734416628        2.1306284018        5.8630918169
 C         0.3366807151        2.2940732854        7.4748870863
 C         0.3404185015        3.8857575737        7.8686816194
 C        -0.9915175057        4.7772676539        7.9722049342
 C        -1.0318390064        1.7146086630        7.9289409746
 C         1.5357584623        1.5554199910        8.0835238709
 O        -0.2745188233        1.3352442533        5.2829277154
 O         1.3040537839        4.2955820442        8.3989856265
 C        -1.2320189923        5.2084100043        9.4011618650
 C        -2.3240784965        6.3644063210        9.3382287045
 C        -3.6582268005        6.1819755942       10.2450863552
 C        -4.7741904577        5.7272749656        9.2272894455
 C        -6.1676203656        5.6061606909        9.7174909668
 O        -2.0446514846        7.3747960680        8.7180914654
 O        -4.4197393739        5.4332545759        8.1113427134
 C        -3.4298946952        5.3553813583       11.5445036068
 C        -3.9591585675        7.6168908503       10.6602576993
 H         3.1053877406       -3.7678052071       -5.7601411197
 H         3.9176284325       -2.6648199487       -4.7573236201
 H         3.0631090414       -4.0556875795       -4.0444897433
 H        -0.2085442982       -2.3381417482       -8.8044045315
 H         1.0992212214       -3.4868931521       -8.1120187862
 H         1.2666598916       -0.0593192790       -4.3959889553
 H        -0.3852020462       -0.5038556263       -4.9291198351
 H         0.5382448570        0.4505062983       -6.0165575124
 H         2.3467528976       -0.2354302826       -7.2080632912
 H         3.3029349018       -1.6481637488       -6.4190861772
 H         2.2745072520       -1.9149523682       -7.7795984841
 H        -1.8856584372       -3.9905380535       -7.8384344015
 H        -0.8826114042       -4.4688884106       -9.1834412287
 H        -2.1998745549       -8.3285970187       -4.9339547523
 H        -1.1385270580       -6.8948527962       -4.3477528430
 H        -1.0845039456       -7.5298665986       -9.4369522767
 H        -2.5060406045       -6.7282330824       -8.7807641141
 H        -2.0870415145       -8.4640275795       -8.4147417429
 H        -0.2764117304       -9.0281800445       -6.6137537799
 H         0.8574779905       -7.9328959802       -7.3149369268
 H         0.1596464578       -7.6615669055       -5.6422288591
 H        -3.0936445726       -7.2927727091       -2.9113071199
 H        -4.1262063449       -7.1822860966       -4.1416738892
 H        -6.1442117498       -2.4188111967       -2.7127871362
 H        -5.6326915053       -2.1783873282       -0.9701663828
 H        -6.1493280369       -4.4311237047       -3.4333788800
 H        -6.2910828484       -5.0032706679       -1.6874911776
 H        -5.7337835676       -6.2513047477       -2.7867388050
 H        -4.0897706522       -4.8926033309       -0.1186820551
 H        -3.6751115976       -6.3508589595       -0.9600876276
 H        -2.5673884787       -5.0410055228       -0.9418147856
 H        -6.0263989975       -0.2405365901       -2.4394815772
 H        -4.5001957219       -0.2158298212       -1.4998087232
 H        -1.7294002236        2.9373759620       -2.1333974268
 H        -2.5628563703        2.0786055923       -1.0134153381
 H        -3.5340112915        1.7975751534       -5.7047598304
 H        -2.3583818444        0.4892881874       -5.6916700059
 H        -1.8825803833        1.9897432836       -4.9131785683
 H        -3.8086171297        3.0653313219       -3.7270181944
 H        -5.1995335295        2.0207922996       -4.1061974679
 H        -4.5310658376        2.0812683066       -2.3948583685
 H        -0.4631253726        0.6461519315       -0.5213333527
 H        -0.0842891120        2.3761067316       -0.3490498287
 H         4.6747901991        2.1184849067       -0.7163795098
 H         4.1827001769        3.8921812252       -1.1478296353
 H         2.0791196784       -0.4152769739       -2.1773922794
 H         1.9119664636       -0.1395184796       -0.4729408575
 H         3.5805614698       -0.2803605955       -1.2868423651
 H         2.5805581295        1.6449937757       -3.8614590488
 H         3.0889582911        3.1596769463       -3.1139376009
 H         4.1496244535        1.7292900232       -3.1100047235
 H         5.3114628153        4.3030338805        0.6440815865
 H         3.6951691398        4.0708762013        1.4343904689
 H         2.4897207335        1.3996329498        4.1669414040
 H         3.2933825152        2.1268665965        5.4386726307
 H         6.4655224644        1.4823067152        4.0403332627
 H         4.7561659810        0.7533377577        4.1383319881
 H         5.3628469145        2.1517563370        5.2181548005
 H         5.2540628794        4.9179785192        3.2297202471
 H         6.1090578972        4.2571766292        4.5512867936
 H         6.7290335106        4.0992363647        2.7965001186
 H         0.7817983246        3.4768894498        4.2850750378
 H         1.6280157226        3.8247363189        5.7943973966
 H        -0.6837799094        5.6456714082        7.3324695026
 H        -1.8175362387        4.2399250147        7.5489866356
 H        -1.1646831054        0.7579121166        7.4443417935
 H        -1.8719768326        2.2895334869        7.6057927624
 H        -1.0479804713        1.7174491978        9.0347097115
 H         2.4005206818        2.1511850013        8.1259400226
 H         1.2674893804        1.5781967764        9.1086916364
 H         1.6386861806        0.5617347202        7.6641288387
 H        -1.2895494214        4.3139234643       10.0142859333
 H        -0.3550605916        5.6708819766        9.8125380887
 H        -6.7251198169        5.6043278421        8.7415662802
 H        -6.3221746494        4.6451397777       10.1149716234
 H        -6.4137784141        6.3966413636       10.4729044138
 H        -2.9701675365        4.3208798905       11.5014762412
 H        -4.3992171403        5.2778167900       11.9191464484
 H        -2.8476388652        5.8655791656       12.3257762651
 H        -4.0143319049        8.1593705569        9.7416682831
 H        -4.7762676201        7.7948772746       11.3219744437
 H        -3.0368264799        7.9809217987       11.0743381466
 Na       -1.5369367487       -2.2439005038       -3.6534019134
