155

 C         3.3373907455       -3.4092659414       -4.7869801214
 C         1.8393912406       -2.9585645375       -4.9749601019
 C         1.4471447291       -1.9040433413       -6.2483538948
 C        -0.0327748132       -2.2213796499       -6.7284290598
 C        -0.4624489100       -2.6826119933       -8.0846377481
 C         1.3006595821       -0.4211557399       -5.6404794192
 C         2.6269079668       -2.0779173590       -7.2959408646
 O         1.0285641169       -3.2171555206       -4.1318840374
 O        -1.0517986992       -2.0182632371       -6.0244826591
 C        -1.2571882758       -3.9862312015       -7.9664905833
 C        -0.5674492112       -5.1929929581       -7.2896116838
 C        -1.1260837479       -6.7019051797       -7.3732539016
 C        -2.2303235255       -6.8787798080       -6.2990078725
 C        -1.9316617932       -7.2457344778       -4.8685357017
 O         0.4051095546       -5.0521500739       -6.6447667825
 O        -3.3756612794       -6.8224345531       -6.6385634749
 C        -1.7125456950       -6.9524124338       -8.8122382569
 C         0.0440778773       -7.7968620201       -7.1750652860
 C        -3.0430245805       -6.6859504548       -3.9715018468
 C        -2.8508251664       -5.2865206601       -3.4907838510
 C        -3.5737040542       -4.8447009179       -2.2524125954
 C        -3.5444916869       -3.2722541614       -2.1788259251
 C        -4.8328520363       -2.6286272936       -2.7172446716
 C        -5.0400233833       -5.3578459920       -2.3762238856
 C        -2.8404225478       -5.4483483534       -1.0765258957
 O        -2.2747841627       -4.4776153427       -4.2206081384
 O        -2.6167495407       -2.6624646777       -1.7547603056
 C        -4.7550154484       -1.0923137137       -2.5957848769
 C        -3.6612357121       -0.4851364304       -3.4422978036
 C        -3.2574910716        0.9973378813       -3.1821113792
 C        -1.9572260038        0.8031524416       -2.2735240664
 C        -1.5855737242        1.8449615313       -1.2655014717
 O        -3.1355639238       -1.1183105515       -4.3235322469
 O        -1.1543716385       -0.1795508502       -2.3371744755
 C        -2.8211557507        1.4383855353       -4.6692852138
 C        -4.3767521215        1.8439468354       -2.4635782411
 C        -0.0107026999        1.8468718172       -0.9294551012
 C         0.9971804260        2.1858278675       -1.9723848390
 C         2.6410221041        1.8189865470       -1.7265710217
 C         3.0401463160        2.6650378017       -0.4078209608
 C         4.4139263364        3.3086500041       -0.3944497770
 C         2.9092341834        0.3498484936       -1.3693078952
 C         3.4134790113        2.1715372065       -2.9812674485
 O         0.7078618600        2.8164181754       -2.9523769043
 O         2.2026033048        2.9752973422        0.3845684080
 C         4.7843378702        4.0571657117        0.9789222824
 C         4.6250760139        2.9963760361        2.1004706117
 C         4.3778369176        3.4878681518        3.5931660984
 C         2.7386658960        3.6207272589        3.7073186586
 C         1.7829414749        2.4909119727        4.2658852971
 O         4.7697490146        1.8089911571        1.8197682359
 O         2.1930682086        4.6900470397        3.3881290374
 C         5.0489667303        2.3931996617        4.5564522385
 C         5.0789363019        4.8198918290        3.8521602599
 C         1.7995395557        2.3105924468        5.8390148001
 C         0.3772282120        1.7744922002        6.2757833249
 C         0.1409398050        1.8563256484        7.8501763559
 C         0.1889445469        3.3738180523        8.3611709917
 C        -0.8911440630        4.4377030992        7.8904848040
 C        -1.3307560412        1.3550960873        8.0572687366
 C         1.1780694477        0.9444102934        8.5588607978
 O        -0.4422827263        1.3386494434        5.5188914262
 O         1.0538043641        3.8571282866        9.0322441164
 C        -2.2909279883        4.5289550806        8.7610821711
 C        -2.5677687808        6.0645495840        8.9837947455
 C        -3.9770001860        6.3989480151        9.6205206755
 C        -5.1565114810        5.7382419382        8.5600233539
 C        -6.5566197960        5.3806639111        9.0412166520
 O        -1.7311771548        6.8762004399        8.7429786645
 O        -4.8202200722        5.6338892650        7.4264585247
 C        -4.2567004591        5.6707555692       11.0112360777
 C        -3.9668256584        7.9880060684        9.8793682926
 H         3.7549504597       -3.9231749184       -5.5841206322
 H         3.8886110460       -2.5461138173       -4.5131973506
 H         3.4257974920       -4.1181450956       -3.9277862386
 H        -1.1601045773       -1.9882415238       -8.5463048919
 H         0.2922342014       -2.8936060981       -8.8521375733
 H         2.2505867879        0.0547479648       -5.4554992289
 H         0.8190360685       -0.5014261851       -4.7090443926
 H         0.7489604922        0.2022329072       -6.3137504238
 H         2.7136608809       -3.1230720456       -7.6621597279
 H         2.6216449603       -1.4640319216       -8.2026085525
 H         3.5962206302       -1.9072228184       -6.9393695006
 H        -2.0906254170       -3.6659139102       -7.3851881353
 H        -1.5316070579       -4.3827033938       -8.9865625951
 H        -1.7512927325       -8.3518582504       -4.7945867403
 H        -0.9499845906       -6.8214044434       -4.4589298974
 H        -2.5938038555       -6.3803061796       -9.1270420232
 H        -1.8544312150       -8.0194547383       -9.2700338538
 H        -0.9646436245       -6.5782337591       -9.5026732657
 H        -0.4844103580       -8.6879738740       -6.8881965346
 H         0.6015976478       -8.0124274835       -8.0973164485
 H         0.8004319189       -7.6037844753       -6.4551788585
 H        -3.0757977057       -7.4478332980       -3.1679969075
 H        -3.9835796138       -6.6836085195       -4.5631246524
 H        -4.8917369272       -2.7761740027       -3.8467114546
 H        -5.8382952296       -2.8134745153       -2.3701688134
 H        -5.4813129651       -5.0069764668       -3.3272663227
 H        -5.6510386721       -4.9852969149       -1.5644206200
 H        -5.1172410494       -6.5226234756       -2.2207085618
 H        -3.4260530215       -5.4835092446       -0.1725841361
 H        -2.6028021690       -6.5517176500       -1.2856514065
 H        -1.9303233396       -4.9280535573       -0.7852389059
 H        -5.7660239265       -0.8572841762       -2.9652493120
 H        -4.7592970748       -0.9187626091       -1.5155012687
 H        -1.8314917512        2.7773975503       -1.6757668939
 H        -2.1563033975        1.8318129739       -0.3457353032
 H        -3.6072981082        0.9902004504       -5.3629830967
 H        -1.8519190415        0.9972010215       -4.9661628636
 H        -2.8942928708        2.5286118975       -4.8159496140
 H        -4.0014908021        2.9388602587       -2.3140277702
 H        -5.2648727256        1.8814286309       -3.1618097702
 H        -4.6006972751        1.5234381285       -1.4785315019
 H         0.1252523922        0.8536176790       -0.5899157687
 H         0.2253057570        2.5521652007       -0.0992006748
 H         5.2399423001        2.5489819313       -0.7007451644
 H         4.4146813076        4.1542100835       -1.1807616978
 H         2.8199652406       -0.3493079908       -2.1648103590
 H         2.2862728244       -0.0668585363       -0.5465625911
 H         3.9544252866        0.2007735721       -0.9320399409
 H         3.2509376243        1.4792779526       -3.7979399245
 H         3.2138379745        3.1029023007       -3.3385496050
 H         4.5278937437        2.2216017500       -2.7335709381
 H         5.7982636694        4.4470032998        0.8262166506
 H         4.1738852429        4.9861681988        1.2016528217
 H         0.8432319212        2.9141121769        3.9837249679
 H         1.8507317115        1.5220593141        3.9087185387
 H         5.6917538958        1.7583719522        3.9188325482
 H         4.2439214038        1.7680092437        4.8620080109
 H         5.5086811735        3.0172285562        5.3244132269
 H         4.7478563831        5.5814780362        3.1493136335
 H         4.8568406699        5.3062250610        4.8932217699
 H         6.1083348192        4.5811357512        3.6916422092
 H         2.1393438549        3.1356121431        6.5231664436
 H         2.5146176802        1.4788756440        6.0037279538
 H        -0.4366826519        5.4490360327        7.9932951271
 H        -1.1138092698        4.4062429956        6.7822335796
 H        -1.3073659275        0.2127415603        8.0450926914
 H        -2.1105346406        1.5948070814        7.3773934484
 H        -1.6676339341        1.5655406624        9.0755889856
 H         2.0866025841        1.4919458031        8.7533900175
 H         0.7285104997        0.3643847812        9.3580893596
 H         1.5847173380        0.2409954824        7.8345920646
 H        -3.1362296680        4.1013112271        8.2837700774
 H        -1.9282573575        4.0575393935        9.7307278083
 H        -7.0488169726        5.4093832084        8.0560441570
 H        -6.4971588613        4.4194171223        9.5454367623
 H        -7.0451935535        6.1837895238        9.5785440601
 H        -4.1962078846        4.5783485130       10.7658486696
 H        -5.2579318717        5.9273888959       11.4500371657
 H        -3.4991558964        5.8332469767       11.7706207706
 H        -4.2799565050        8.4369398994        8.8991375042
 H        -4.6788534057        8.2057764651       10.6332477283
 H        -2.9708775102        8.2692813051       10.1422964284
 Na       -1.1174478265       -2.4540859248       -3.6261189002
