155

 C        -3.0815882294       -8.8757864614        2.6774051466
 C        -1.6346329906       -9.2525612442        2.7624650663
 C        -0.3791517369       -8.2208163460        2.6315874304
 C        -0.8677359866       -6.8990236616        2.1480114999
 C        -1.3315156958       -6.8778417612        0.5956536948
 C         0.2092555710       -8.0014365325        4.0477821100
 C         0.8004712429       -8.6861158510        1.7368916658
 O        -1.2693731347      -10.4311392820        2.5883353345
 O        -0.9554664090       -5.8908404724        2.7698924573
 C        -1.0986531128       -5.5074442999       -0.0820845902
 C        -1.2132782559       -5.6172342701       -1.5922338881
 C        -1.7016094220       -4.2460602739       -2.3698532903
 C        -0.8198654598       -3.1614092480       -1.8699913032
 C         0.5048470121       -3.1659664869       -2.6428148138
 O        -0.9311679289       -6.4766336530       -2.3725556401
 O        -1.1558589288       -2.4462039423       -0.9000338045
 C        -1.4878474257       -4.4324548259       -3.9295944146
 C        -3.2401196588       -3.9349650928       -2.0563824836
 C         1.8309218175       -2.4489393894       -2.0654019791
 C         1.6999603413       -0.9316792289       -1.9679932599
 C         2.8392054979       -0.1182355432       -1.0856538337
 C         3.4879247951        0.9005027436       -2.1334079899
 C         5.0163408998        0.8913939134       -2.2137698428
 C         2.0584611981        0.5933033573        0.0777908241
 C         3.9025873366       -0.9966200864       -0.4641981235
 O         0.9025519529       -0.2492903248       -2.5566399231
 O         2.7336887854        1.6550220623       -2.7470087672
 C         5.2851257761        1.8578799492       -3.4189405178
 C         5.2671952936        0.9374646096       -4.6644625397
 C         5.2162267720        1.6439622487       -6.1616705370
 C         3.8524246795        2.3663654399       -6.4421017696
 C         2.7440099012        1.5401289330       -7.2268950180
 O         5.3641160213       -0.2483216129       -4.5523033382
 O         3.6770249893        3.4731624857       -6.0015336831
 C         6.3332917931        2.7161487332       -6.2248245045
 C         5.5061986092        0.4688677527       -7.1207474255
 C         1.4717936367        2.3245160397       -7.4094248801
 C         0.6536336052        2.8331571796       -6.0343179244
 C        -0.6998429415        3.6228958325       -6.2227463116
 C        -1.5510728236        3.2740342361       -4.8838201783
 C        -2.5263681951        4.5364318554       -4.4517499511
 C        -0.1645102291        5.1775769486       -6.0970614879
 C        -1.6066104481        3.2766728494       -7.3692567964
 O         1.1309791246        2.5931133246       -4.9508094529
 O        -1.6869950472        2.1481696373       -4.4405631220
 C        -2.6668931852        4.7240129092       -2.8482370956
 C        -1.3399286726        4.6440153321       -2.1530058133
 C        -1.2309782434        4.5553999108       -0.6305859281
 C        -1.6993483459        2.9958126997       -0.3868696529
 C        -3.0092544454        2.6727700382        0.4697542949
 O        -0.3162432307        4.6526241070       -2.8550403025
 O        -0.9489904330        2.1306268434       -0.8443965063
 C         0.2120243371        4.7493604218       -0.2135465711
 C        -2.0350292225        5.6507819349        0.0140241217
 C        -3.1972053993        3.2106610438        1.9265885989
 C        -1.8970168524        3.1197267480        2.7349508863
 C        -1.7972793637        3.2737839664        4.2749271254
 C        -2.7550408725        2.1995805356        4.9431664714
 C        -2.3932325479        1.7913689691        6.3755473707
 C        -0.3153157043        3.2504221290        4.6783503282
 C        -2.3536936012        4.5899720757        4.6958664456
 O        -0.8952645836        2.9186799143        2.1289675701
 O        -3.7169213158        1.7525709987        4.3412518165
 C        -3.0409546897        0.4436579931        6.8872575488
 C        -2.4472351724        0.2505131136        8.3128341377
 C        -3.3723332374       -0.1677306037        9.5356967312
 C        -4.3396070580        1.0371956482        9.9079284890
 C        -5.3488339957        0.7413898384       10.9701254756
 O        -1.2198132735        0.1088412534        8.4754595711
 O        -4.3578800169        2.1060024116        9.3475366716
 C        -4.2471488389       -1.3722087234        9.3082153749
 C        -2.4754563629       -0.4234135697       10.7904612610
 H        -3.6258155941       -9.8460376835        2.7233740540
 H        -3.4019188875       -8.2729718841        3.5304265361
 H        -3.1513234643       -8.4997087843        1.6210707429
 H        -0.9859687229       -7.6264260646       -0.0529409184
 H        -2.3674557633       -7.0719316044        0.6121439182
 H        -0.5507354904       -7.5263526481        4.6691755107
 H         1.0186515900       -7.3194012531        4.0960607112
 H         0.5639785551       -8.9352550290        4.4503706234
 H         0.4427024704       -8.8298667911        0.7174739216
 H         1.5365733530       -7.8838384984        1.8229799722
 H         1.1639628076       -9.4894404385        2.2768704181
 H        -1.8735053860       -4.7595024617        0.1824787187
 H        -0.1296250175       -5.1451692131        0.1287770422
 H         0.8779963196       -4.1506255845       -2.5331500723
 H         0.3498555771       -2.7528743590       -3.6173919487
 H        -1.8409139474       -3.4699712332       -4.4629846023
 H        -2.2927652641       -5.1227998818       -4.3173233623
 H        -0.5763907414       -4.8238140301       -4.2623402018
 H        -3.2513561469       -2.8610076934       -1.7035628182
 H        -3.8723754967       -3.9916166717       -2.9463464832
 H        -3.5781027733       -4.6249043282       -1.2815214625
 H         2.6399667686       -2.8333026987       -2.7348428443
 H         1.9691296779       -2.8300266105       -1.1207422116
 H         5.5789430302        1.2356998632       -1.3021701465
 H         5.4309520030       -0.1166814720       -2.3826968204
 H         1.0552266694        1.0217684183       -0.2955759022
 H         2.6727247997        1.2676237391        0.6402941672
 H         1.7313314786       -0.2765008250        0.7113687792
 H         3.4589643623       -1.8942898611       -0.0926466264
 H         4.6454919562       -1.4207608753       -1.2487867587
 H         4.5085224270       -0.5786420057        0.3151068299
 H         4.5399352576        2.5886978204       -3.4459309832
 H         6.2547377838        2.3922732786       -3.2710876774
 H         3.2281010945        1.3971695933       -8.1723620665
 H         2.5276503826        0.6350299343       -6.7785683888
 H         6.2248946028        3.6035117647       -5.5514572797
 H         6.2880378527        3.2312239654       -7.2031430361
 H         7.3153971454        2.2781379875       -6.0434273063
 H         4.5487290935        0.0487391459       -7.4787411077
 H         6.1556511086        0.7448709948       -8.0011165414
 H         5.8708751402       -0.4279112413       -6.6261369022
 H         0.7099422164        1.6806405878       -7.8602844072
 H         1.5862616249        3.3353625217       -7.9174485047
 H        -2.0426881997        5.5047017451       -4.7233802016
 H        -3.5555045809        4.4689096810       -4.8907325210
 H        -0.0534280979        5.4899176922       -5.0718417956
 H        -1.0336392921        5.8135893738       -6.4313770454
 H         0.6807410340        5.1390845357       -6.7242635873
 H        -2.4878792409        3.8238858945       -7.4440897132
 H        -1.0196700231        3.4325836944       -8.2998306239
 H        -1.9323308852        2.2113792204       -7.3298195179
 H        -3.1964866595        5.6614887745       -2.7078749350
 H        -3.3349040295        4.0013789110       -2.4714901483
 H        -3.8180869115        3.0177469186       -0.1842078838
 H        -2.8803057461        1.5452754108        0.5470158505
 H         0.8827007434        3.9163523163       -0.5924324757
 H         0.2076917401        4.7443233489        0.8345952721
 H         0.5526690308        5.7478763607       -0.5381247994
 H        -1.6270812462        5.8403539183        0.9982946674
 H        -1.8938665549        6.7099596670       -0.4943657574
 H        -3.1108056360        5.5071842636        0.0003200189
 H        -3.9611218116        2.6339829338        2.3079503017
 H        -3.3947605419        4.2871091955        1.8516450014
 H        -1.3121447728        1.8235374471        6.5113540364
 H        -2.8482612157        2.5859525599        6.9612844672
 H         0.1420077016        2.2287085077        4.6334842135
 H        -0.2457123029        3.8501879831        5.6117628898
 H         0.2507000354        3.9318564246        4.0576018741
 H        -2.5269353211        4.4954483369        5.7844387589
 H        -1.7061458353        5.5291179153        4.4476506480
 H        -3.3289687011        4.6647654076        4.1867843032
 H        -4.1094196888        0.4850274447        6.7540001936
 H        -2.6177883079       -0.4516344095        6.3868163493
 H        -4.9675278447        0.9630616232       11.9862616928
 H        -6.1658251905        1.4917551600       10.7784048996
 H        -5.7134019234       -0.2772918784       10.9739220449
 H        -4.7958052525       -1.7064197436       10.1939418877
 H        -3.7943455680       -2.3065316401        8.9574715247
 H        -5.0489459729       -1.1620032057        8.5912114560
 H        -3.1409891488       -0.9207028048       11.4726989744
 H        -1.7491573365       -1.1928334149       10.4903479398
 H        -2.0986737705        0.4965913782       11.2289815822
 Na        0.3743433822        1.9505846890       -2.7251371529
