155

 C         3.4843211031       -5.1760606698       -6.2622291852
 C         2.7653417806       -3.9618034340       -5.7254181776
 C         2.5618961504       -2.6675642998       -6.6106937482
 C         1.0401542229       -2.4547057002       -6.6930249655
 C         0.3417431040       -2.2670001051       -8.0155971061
 C         3.0421017304       -1.4658247872       -5.7224118436
 C         3.2934336427       -2.8198292459       -7.9436112757
 O         2.5551428852       -3.9153873600       -4.5485535770
 O         0.3417221173       -2.6245363404       -5.7335448560
 C        -1.0747894697       -2.8935480718       -7.8664847545
 C        -0.9376008637       -4.4374076991       -8.1427331597
 C        -2.1577638164       -5.4550110557       -8.0516577318
 C        -2.3764032623       -5.6429307590       -6.4198486222
 C        -1.5504222530       -6.7062844597       -5.7806153301
 O         0.1666240407       -4.8919662933       -8.3474213377
 O        -3.2939888303       -5.0707146548       -5.8237269869
 C        -3.4478174682       -4.7439153251       -8.5939441298
 C        -1.8070633874       -6.7761158179       -8.7774036208
 C        -1.7902199497       -6.9480006516       -4.2829627253
 C        -1.2145946932       -5.8434287811       -3.3650847446
 C        -2.0011066197       -5.3990795480       -1.9011726146
 C        -1.9560053536       -3.9348362868       -1.8113433304
 C        -3.2885053461       -3.0783502624       -2.0035799057
 C        -3.2838257211       -6.0670865032       -1.6855764298
 C        -1.0921336471       -5.8944323911       -0.7393067261
 O        -0.3826513584       -5.0646313104       -3.7267671206
 O        -0.8717235938       -3.3007818337       -1.6842129424
 C        -3.1130850061       -1.6327028311       -1.6736418304
 C        -2.3175272926       -0.9774200942       -2.8177593643
 C        -1.7631061149        0.4315683209       -2.6338399390
 C        -0.4105585792        0.1039079000       -1.8969835744
 C        -0.2826866136        0.0624124583       -0.3720216012
 O        -2.0392640921       -1.6053657114       -3.8245838502
 O         0.6266804152       -0.2776256495       -2.5201569026
 C        -1.3193337796        1.0281474422       -4.0170486836
 C        -2.5899678701        1.4410752757       -1.8481852597
 C         1.0492446932        0.9410735139        0.0518049217
 C         0.9043644551        2.3176314843       -0.5924445344
 C         1.9671125002        3.4872667847       -0.5529050796
 C         2.1471408622        3.8673740910        0.9075825265
 C         2.8455842328        5.2395120272        1.2030155857
 C         3.2993662689        2.8987594793       -1.1176467180
 C         1.4090586655        4.6896046460       -1.4053861617
 O         0.0032718321        2.4394056242       -1.3778612657
 O         1.7747461232        3.1680678973        1.8246069895
 C         3.0441036553        5.6549339238        2.6782231731
 C         4.1324190867        4.6289243746        3.3035327430
 C         4.2423060566        4.5140119164        4.8665488208
 C         2.8498197325        4.4406664921        5.5178285506
 C         2.1536739425        3.0720216071        5.4604546804
 O         4.7626562753        3.8758664860        2.5719633246
 O         2.4075521015        5.4174244942        6.0329322472
 C         5.2020202928        3.2919608904        5.0951512955
 C         4.9969835028        5.8809610636        5.1723337676
 C         0.9201734772        2.8684567610        6.4350811566
 C        -0.0868090938        1.8526988444        5.9117136475
 C        -1.1317013222        0.9524636928        6.7224695234
 C        -2.1264668286        2.0405386033        7.5152422073
 C        -3.5660219731        2.4475778061        6.9878637200
 C        -2.0685327010        0.1280896445        5.7657933698
 C        -0.4931498059        0.1553934097        7.7924519662
 O        -0.1794210562        1.5865984381        4.7072331030
 O        -1.5910476080        2.6721362647        8.4100504619
 C        -3.9755044125        3.7524210745        7.6173302412
 C        -4.9929104703        4.4354525735        6.7679230420
 C        -5.4268304135        5.9860498220        7.2320534610
 C        -6.8922054519        5.7522458638        7.8959215501
 C        -8.0560399153        6.0763041934        7.0144606440
 O        -5.6360242148        4.0545766179        5.8360268308
 O        -7.0064905228        5.3851734549        9.0450692632
 C        -4.5406520653        6.4380242672        8.4444689567
 C        -5.3457340959        6.8204376556        6.0003151753
 H         3.3497486636       -5.8825935665       -5.4837354571
 H         3.1322166814       -5.4297026233       -7.2311242954
 H         4.5621874526       -5.0266109150       -6.5464745756
 H         0.2496339342       -1.2089292917       -8.2464367276
 H         1.0562860697       -2.6914704826       -8.7257555794
 H         4.1580465496       -1.3039954329       -5.6485089955
 H         2.4538222291       -1.5768374593       -4.8112678111
 H         2.8328664643       -0.4845996776       -6.2539243396
 H         2.9471861739       -3.6311198576       -8.5507798718
 H         3.3406120832       -1.8240247552       -8.4431717593
 H         4.4092785307       -2.9097766015       -7.8803447937
 H        -1.5790860457       -2.6356891355       -6.9438732130
 H        -1.7631278193       -2.4439562222       -8.5446228032
 H        -1.8049754093       -7.6766141051       -6.3079713113
 H        -0.4880724161       -6.6449697895       -5.9446615422
 H        -3.9999354385       -4.2179071290       -7.8712034014
 H        -4.2377350626       -5.4538001348       -9.0254814503
 H        -3.2415712391       -4.1265647306       -9.5066310557
 H        -2.3641644757       -7.6538140363       -8.5480854946
 H        -1.8246673207       -6.5702610738       -9.8676222350
 H        -0.7861761182       -6.9764595090       -8.5647297809
 H        -1.2627854558       -7.8599729479       -3.9611366568
 H        -2.8701361511       -7.0844603926       -4.2165547994
 H        -3.5503901203       -3.2160490432       -3.0579448842
 H        -4.1844213410       -3.4884966120       -1.4322091632
 H        -3.8929218340       -6.0126908139       -2.6516158517
 H        -3.9996775334       -5.5870368930       -0.9387037768
 H        -3.1018325303       -7.0774058791       -1.4841821331
 H        -1.3725640798       -5.4429063606        0.1997162938
 H        -1.0916949352       -7.0165727560       -0.6523083234
 H        -0.0431740124       -5.6475873505       -1.0001384390
 H        -4.0971640367       -1.1871135682       -1.7298477410
 H        -2.5498066926       -1.4655502172       -0.7081386761
 H        -1.1812922235        0.3993690990        0.1074779369
 H        -0.0782200487       -1.0327043688       -0.1619783537
 H        -0.4160565926        1.5730212763       -4.0062015404
 H        -2.0915592073        1.6684845149       -4.3656015211
 H        -1.3038379478        0.2222203854       -4.6472838387
 H        -1.9551331331        2.3060717144       -1.4551764079
 H        -3.2556490065        1.9261332226       -2.5258067808
 H        -3.2118322246        1.0725584343       -1.0079400818
 H         1.9182552954        0.3639646980       -0.4100717901
 H         1.2999654825        1.0326422653        1.0993564853
 H         3.8345442462        5.1716653730        0.6906382247
 H         2.1058667339        5.9610884729        0.7151293991
 H         2.9296382044        2.2989070558       -1.8903990749
 H         3.8342695431        2.4331831738       -0.2590669757
 H         4.0030908220        3.6310005197       -1.5411803442
 H         1.1027593521        4.4428731492       -2.4433961867
 H         0.6357349553        5.2099324086       -0.8767539066
 H         2.2605556796        5.4230712642       -1.5584891171
 H         3.5657251439        6.6224121258        2.8232255590
 H         2.1266654814        5.5141720973        3.2387610595
 H         1.9206540898        2.9001353140        4.4242779454
 H         2.9035453256        2.3569507668        5.6320523697
 H         6.1657491841        3.4975844541        4.6137349780
 H         4.7145417102        2.4487830802        4.6137630069
 H         5.4409195841        2.8997349940        6.0766968802
 H         4.2285155944        6.5937781671        5.0061527885
 H         5.3876761325        6.1115528074        6.1882695436
 H         5.8830894187        6.0137437841        4.5712243330
 H         0.3433374804        3.8170244578        6.5649555502
 H         1.3052527323        2.5282371576        7.3743919687
 H        -3.3900525219        2.6083882723        5.8881597970
 H        -4.4214340592        1.8055173028        6.9010300995
 H        -1.4788145059       -0.6596858472        5.4797722277
 H        -2.2682834650        0.6934818292        4.8573991862
 H        -2.9306291098       -0.2288080723        6.2821458055
 H         0.3300390414        0.8089875754        8.1367577325
 H        -1.2916475938       -0.1723295670        8.5094618640
 H         0.0313051754       -0.7427913943        7.3838357148
 H        -4.3432468357        3.5366893534        8.5967122256
 H        -3.0582287913        4.3919405772        7.7876641590
 H        -8.2006213487        7.0991460804        6.9437078060
 H        -7.9939010978        5.6667644107        5.9977512620
 H        -8.9396553394        5.7287334523        7.4960131672
 H        -5.0083098713        5.9156924775        9.3225788671
 H        -4.6352906195        7.4649595687        8.5798359541
 H        -3.4496536053        6.3474567596        8.2720559018
 H        -5.5748992354        7.8541058706        6.2396196404
 H        -4.3704010198        6.8543340986        5.5429464269
 H        -6.1397823866        6.4447054446        5.3104287147
 Na        0.4002083989       -2.7329796178       -3.4724328861
