155

 C         3.4527115046       -4.8226164718       -5.6782763405
 C         2.9765013968       -3.4411731349       -5.2439678350
 C         2.8282460412       -2.2072984697       -6.2708686295
 C         1.3591563860       -2.4721451521       -6.7558915180
 C         1.0418692445       -2.7617013678       -8.2474525946
 C         2.8269325929       -0.8137263510       -5.5938083408
 C         3.8097736527       -2.3313530602       -7.4776098945
 O         2.6296638817       -3.2176634803       -4.1107644385
 O         0.4155706043       -2.2226880395       -6.0423644637
 C        -0.4699920309       -2.8873638264       -8.4117881428
 C        -0.9469818012       -4.2769894328       -8.0634318187
 C        -2.4370686547       -4.7334539522       -7.6039872178
 C        -2.2309842895       -5.5377100147       -6.2433396186
 C        -1.1697492080       -6.5736929479       -6.1071404197
 O        -0.1083676566       -5.1704381434       -8.0907537868
 O        -3.0401450321       -5.4229591665       -5.2977141759
 C        -3.4657962708       -3.5182191541       -7.2010536533
 C        -2.9204724768       -5.6405228953       -8.7774341251
 C        -0.9562044305       -6.9884510814       -4.6236482049
 C        -0.8242458691       -5.7188344527       -3.7576691951
 C        -1.2725097922       -5.7371272215       -2.3072794886
 C        -1.3822581346       -4.2160983962       -1.7598499519
 C        -2.7565951809       -3.5208999311       -1.5031890971
 C        -2.6410625788       -6.5131828481       -2.0540326265
 C        -0.2274849142       -6.5403096278       -1.5493340540
 O        -0.2736132180       -4.7281971437       -4.1977477434
 O        -0.3245193719       -3.6573982059       -1.5292619681
 C        -2.4373544352       -2.0614750543       -0.9895639073
 C        -1.9103336470       -1.1444521641       -2.0782014457
 C        -1.2211219446        0.2435053943       -1.6926283877
 C         0.0660561496       -0.1298508186       -0.9056426084
 C         0.4792478715        0.5714163027        0.3773145198
 O        -1.8656984905       -1.3930405100       -3.2399042434
 O         0.7994287693       -1.0233849214       -1.3071308015
 C        -0.6503365435        0.9109394804       -3.0505761442
 C        -2.2148108839        1.2368721885       -1.0305919675
 C         1.7902623014        1.3914908390        0.0212655439
 C         1.3960623036        2.7274088759       -0.5293909370
 C         2.3619219010        3.9242269360       -0.2541056059
 C         1.8945923158        4.4440426100        1.1331700758
 C         2.6236130233        5.7110878337        1.5346690327
 C         3.8289920761        3.3982677255       -0.1484925811
 C         2.3070720801        5.0044350947       -1.2713759661
 O         0.3966847816        2.9114401541       -1.1687386602
 O         1.0950900404        3.8263930715        1.8171949673
 C         2.7550363534        5.7070338532        3.1174010637
 C         3.5188417016        4.4264357702        3.4902388952
 C         3.7203787883        4.2677194547        5.0568365373
 C         2.3358804384        3.7235996614        5.6662354414
 C         1.4296281772        2.6829896092        4.9045601519
 O         3.8399018473        3.6187298236        2.6824092550
 O         1.8941205438        4.2730528953        6.6307596134
 C         4.7777331284        3.2141575748        5.2961228822
 C         3.9620798567        5.6286052477        5.8178772018
 C        -0.0985278065        2.9240133803        5.0522362769
 C        -0.7156583469        1.4997021924        5.0536389581
 C        -1.4877743888        1.0398464298        6.4680728474
 C        -2.4583036099        2.2143890924        6.8018723617
 C        -3.8485723981        2.1987884961        6.2651089990
 C        -2.2064558467       -0.3801619887        6.2752619831
 C        -0.3457450633        0.8764602884        7.5223117042
 O        -0.8345537544        0.7467581764        4.1172424725
 O        -1.9996955801        3.2615263834        7.3081962872
 C        -4.8776211863        3.2212393389        6.8223416690
 C        -5.2253888922        4.2392742188        5.5918727747
 C        -6.1158651060        5.5081636611        6.0833528890
 C        -7.0351749915        5.1738292953        7.3379792379
 C        -8.4944004806        4.7177774587        7.3017964827
 O        -4.8974970092        3.9838041348        4.4810382336
 O        -6.6660165375        5.3693274968        8.4708719743
 C        -5.1575357442        6.6705517358        6.4947308565
 C        -7.0961446660        6.0281520322        4.9069011568
 H         3.1197300506       -5.6130540544       -4.8998553952
 H         2.9938844314       -5.1415547586       -6.6206335543
 H         4.5846873877       -4.8661197080       -5.7509456349
 H         1.3393937081       -1.9725341416       -9.0070668977
 H         1.5640974771       -3.6521701858       -8.5047325273
 H         3.7997346183       -0.2224204972       -5.6122553868
 H         2.2313999344       -0.9001826504       -4.6524687970
 H         2.2598753833       -0.1797178744       -6.3273992239
 H         3.7222982510       -3.3875982862       -7.8980257749
 H         3.6324284702       -1.4585363986       -8.0895573747
 H         4.8495805223       -2.1589381241       -7.2194333038
 H        -0.9894226684       -2.2189644970       -7.7672257415
 H        -0.6689336441       -2.7233286431       -9.4921662565
 H        -1.2933473299       -7.4594215770       -6.6732331462
 H        -0.1863371608       -6.0592121095       -6.3890615667
 H        -3.1636565726       -2.4905037396       -7.6288118813
 H        -3.3826286704       -3.3218518464       -6.1510070259
 H        -4.4530515710       -3.8657807868       -7.4365744605
 H        -3.8839485264       -6.0227275013       -8.4901730026
 H        -3.0515062912       -5.0804262724       -9.6493490959
 H        -2.2987681052       -6.5308554047       -8.9309117110
 H        -0.1245308641       -7.6975691230       -4.5851997480
 H        -1.8218884153       -7.5857206891       -4.1752479163
 H        -3.2273396360       -3.2265531740       -2.4624016491
 H        -3.3169110514       -4.2179532954       -0.9379595924
 H        -3.5022171967       -6.1909293462       -2.6041868822
 H        -2.8383048312       -6.4373960939       -1.0724616749
 H        -2.3905773641       -7.5548258370       -2.2957956665
 H        -0.0498130335       -6.1132193224       -0.5251323885
 H        -0.4902003005       -7.5604413745       -1.4194959432
 H         0.7547455999       -6.6206324391       -1.9906659336
 H        -3.2120901557       -1.5921048443       -0.3784497665
 H        -1.6636183306       -2.1950105341       -0.2087641870
 H        -0.3327550660        1.2429936810        0.7825954337
 H         0.7598730880       -0.2098380547        1.0364526031
 H         0.0421576594        1.7422336547       -2.8722178338
 H        -1.3521408540        1.2856331358       -3.7607787004
 H        -0.1521714822        0.1754633510       -3.5958729416
 H        -1.9575070336        2.2590180693       -0.9396388093
 H        -3.0315475527        1.2977539591       -1.8663955119
 H        -2.7719147276        0.8815412857       -0.1544481285
 H         2.2349147435        0.8631129144       -0.8707392207
 H         2.4528334027        1.3533502562        0.9343014699
 H         3.5666383299        5.6905472928        1.0189264987
 H         2.2159235852        6.6639838949        1.2025675501
 H         3.8940312219        2.5043784313       -0.8699513253
 H         4.0619580215        3.0751638983        0.8427555138
 H         4.5606578959        4.1190145438       -0.4772383592
 H         2.2381939794        4.5492785404       -2.2823022803
 H         1.4635947480        5.7580070448       -1.1077394321
 H         3.1157077139        5.6300418194       -1.3571043040
 H         3.0565777019        6.7123645364        3.5215035954
 H         1.7784732335        5.6298435297        3.6223886409
 H         1.8434112381        2.7866830995        3.9213859968
 H         1.7374144795        1.7155576721        5.3049226995
 H         5.6354734166        3.5327106260        4.7521920092
 H         4.3257677610        2.2688287516        5.0830533852
 H         4.9144744241        3.2430633536        6.3689318244
 H         3.0730790894        6.1974542411        5.9174961401
 H         4.1992597018        5.1737452572        6.8622985877
 H         4.8247070749        6.0723897776        5.4470596765
 H        -0.6074796421        3.5274109053        4.3817760647
 H        -0.2527784996        3.4432000508        6.0070170909
 H        -3.6832823939        2.4325185987        5.1437047331
 H        -4.2775164299        1.1903926002        6.4283949395
 H        -1.6295934527       -1.2651169461        6.0349361837
 H        -3.0450773855       -0.4207473650        5.6258653030
 H        -2.6238280428       -0.6212646801        7.2273239671
 H         0.3022756526        1.7823455543        7.3900443958
 H        -0.6569270823        0.7966771495        8.5986966508
 H         0.4006804799        0.0387454955        7.2804144618
 H        -5.8157639073        2.8246834694        7.0874014483
 H        -4.2775322406        3.6776423039        7.6543085028
 H        -9.2422234058        5.5676749565        7.1856523692
 H        -8.7324643068        4.0104020395        6.5374809067
 H        -8.6910837762        4.2320125594        8.1894901404
 H        -4.3849924740        6.3663270145        7.1800907268
 H        -5.7617296474        7.4684085521        7.0544977243
 H        -4.7167664457        7.2035828838        5.6591822582
 H        -7.8204970143        6.7204185594        5.3753747625
 H        -6.6030209738        6.5910309735        4.0608510390
 H        -7.6338601254        5.1604865606        4.5455586791
 Na        0.2729042550       -2.3591578899       -3.5934438542
