155

 C         4.0745071760       -4.3718138136       -5.5044263321
 C         3.1504786703       -3.2171197066       -5.1879958465
 C         2.8688533484       -2.0496687199       -6.1883087251
 C         1.3587974042       -2.1376027418       -6.5729010476
 C         0.9012506290       -2.2403797824       -8.0089863877
 C         3.0728618125       -0.6903608872       -5.3337557788
 C         3.7135955407       -2.0174697907       -7.4678070936
 O         2.7363738985       -3.1177855099       -4.0237799121
 O         0.5212384495       -2.4077018034       -5.7369641824
 C        -0.5666570072       -2.7316222878       -8.1492889372
 C        -0.8215010632       -4.2895745927       -7.8954928903
 C        -2.3152518212       -4.6665590249       -7.5240420894
 C        -2.4592501404       -5.5133758117       -6.2382876381
 C        -1.5459505872       -6.7372885400       -6.0348552211
 O        -0.0447906235       -5.1429254054       -8.1803417086
 O        -3.3265268058       -5.2705376744       -5.4015321864
 C        -3.2147219478       -3.4679793657       -7.3569066969
 C        -2.9192833034       -5.5349327720       -8.6284189261
 C        -1.1933186663       -6.8949966827       -4.5894251499
 C        -0.8827126822       -5.7037410884       -3.7421497085
 C        -1.2138367246       -5.7115662978       -2.1672753633
 C        -1.1418321553       -4.1988904182       -1.5914928615
 C        -2.4501541296       -3.5500504605       -1.1212542712
 C        -2.5718764801       -6.3565435251       -1.8736015236
 C        -0.1019987286       -6.6035587661       -1.4095620038
 O        -0.3382445447       -4.7425393252       -4.3048258546
 O        -0.0658754119       -3.6014638228       -1.5313760592
 C        -2.1934066943       -1.8939297818       -0.8814795982
 C        -1.7453553562       -1.2449317398       -2.1377590581
 C        -1.1175544726        0.2669414622       -1.7070989465
 C         0.3039433799       -0.0792246686       -1.1434265511
 C         0.6209617798        0.3066169471        0.2935566480
 O        -1.9066238985       -1.6460987058       -3.2619093631
 O         1.0803254207       -0.6375388716       -1.9124614673
 C        -1.2071229385        1.0073805446       -3.0895778759
 C        -2.0633403130        0.9212572553       -0.7081688219
 C         1.7641452917        1.3594915666        0.4142214216
 C         1.5185750669        2.5667986301       -0.4216314012
 C         2.4483733362        3.8541339695       -0.3054759246
 C         2.0099004107        4.6389171018        1.0885274096
 C         2.8160147377        5.8976779523        1.5713991786
 C         3.9776700509        3.6979653328       -0.3743160654
 C         2.0283462644        4.7941305299       -1.4948529921
 O         0.5918208937        2.6726346915       -1.1325558429
 O         1.0768371249        4.2246540248        1.7241606439
 C         2.9901291771        5.8430218243        3.1254913829
 C         3.5086016665        4.5050107903        3.5972452065
 C         3.6128297950        4.1719836495        5.1091519903
 C         2.2026792055        3.7375918746        5.6911806629
 C         1.5360231118        2.4493810362        5.1408172870
 O         3.7254024272        3.6511353873        2.7912655454
 O         1.7137658679        4.3857810684        6.5777273516
 C         4.5857838695        2.9483088306        5.3993680972
 C         4.0763016147        5.3224785668        6.0294723149
 C         0.0299399580        2.5960529131        4.7880910097
 C        -0.8693963624        1.4226638871        4.9672598558
 C        -1.5813364346        1.0841598308        6.4101515439
 C        -2.8139523713        2.1708391835        6.7132455071
 C        -4.0164048049        2.0858041615        5.8647592583
 C        -2.0513173918       -0.3321840665        6.4251428425
 C        -0.5745054580        1.2401081434        7.5405191150
 O        -1.3899921004        0.9148427871        4.0133374131
 O        -2.6128690599        3.0183714565        7.5649075418
 C        -5.0948776529        3.0612227200        6.3863709269
 C        -5.3831221061        4.1087295942        5.2609173769
 C        -6.2548047899        5.3368731874        5.7695591407
 C        -7.0629608804        4.9257114099        7.1392595831
 C        -8.3588113923        4.0933905808        7.1362674103
 O        -5.2245871590        3.8660418897        4.1316020982
 O        -6.5479978112        5.2906971980        8.1743963974
 C        -5.2746309441        6.4720809298        6.1273171228
 C        -7.3318900070        6.0119891850        4.7959350442
 H         4.2335859379       -4.9029729732       -4.5787144159
 H         3.6789377766       -4.9317943774       -6.2948566890
 H         5.1148322416       -4.0678989087       -5.9027857317
 H         1.1350116160       -1.2501039537       -8.5579377475
 H         1.4430594497       -2.9939993040       -8.5328058106
 H         4.0769226948       -0.7645614054       -4.7912836360
 H         2.3162703245       -0.6185878623       -4.5621181922
 H         3.0515343805        0.2524375235       -5.9266115918
 H         3.5777903961       -2.9813188243       -8.0445640637
 H         3.4331861588       -1.1984383213       -8.1641892138
 H         4.7345039051       -1.9822117783       -7.1822701333
 H        -1.1362604044       -2.2262984833       -7.4408433853
 H        -0.9524488967       -2.6192154624       -9.1683057694
 H        -1.9299075546       -7.5547989860       -6.5518850021
 H        -0.5991620089       -6.4819453889       -6.5434779456
 H        -3.1814693349       -2.9100000380       -8.3161977302
 H        -2.6007559416       -2.8371383547       -6.6528792720
 H        -4.2108146611       -3.7464219321       -6.9210453525
 H        -4.0006383631       -5.6716608684       -8.4095324405
 H        -2.9547402069       -4.9156611711       -9.4993874634
 H        -2.4647378745       -6.5350982821       -8.7062812652
 H        -0.2022634154       -7.3978299433       -4.5805119450
 H        -1.9075345217       -7.5666156362       -4.0158313359
 H        -3.1290832404       -3.6124651108       -2.0295409013
 H        -2.8622017164       -4.0680672362       -0.2545192258
 H        -3.2346762975       -5.8879684877       -2.6604820721
 H        -2.9681930861       -6.0290839084       -0.9317702025
 H        -2.6231995619       -7.4209431684       -1.8409384384
 H        -0.4894039310       -7.0636308844       -0.4943211735
 H         0.2406267147       -7.4345211406       -1.9608507290
 H         0.7995804188       -6.1133981103       -1.1422151625
 H        -3.1383494384       -1.4723300127       -0.5001058359
 H        -1.4829752392       -1.9084895241       -0.0659127270
 H        -0.2699583306        0.8071404928        0.6287438413
 H         0.7917746842       -0.6324544953        0.8987042586
 H        -1.1305197545        2.0230217650       -2.9262880999
 H        -2.1232487482        0.9384382378       -3.6428887007
 H        -0.4803320263        0.6994883584       -3.7557269764
 H        -1.6920676133        1.9111992329       -0.2312417521
 H        -3.0209368011        1.2384116357       -1.2231169584
 H        -2.1783487630        0.2532221684        0.0759500960
 H         2.7133204939        0.8400688602        0.1709330993
 H         1.7344034696        1.7877617794        1.4682210350
 H         3.8565822296        5.8344764064        1.1731078724
 H         2.2712511187        6.7803525268        1.1538130965
 H         4.4497945954        4.1692645854       -1.2894040549
 H         4.2585144509        2.6657341659       -0.2660952046
 H         4.3937334276        4.0279515894        0.5744131153
 H         2.2871795683        4.3853685368       -2.5009737605
 H         0.8984889473        4.9639196137       -1.6267615093
 H         2.4838848497        5.7366088768       -1.3885622565
 H         3.7066134452        6.6252968340        3.5680185594
 H         2.0533435992        6.1616029963        3.6407674381
 H         2.0129325859        2.0178767794        4.2902462705
 H         1.6714527491        1.6772411437        5.8990557997
 H         5.5446446141        3.3237152487        5.1064238908
 H         4.4072867209        2.2107620880        4.6140613015
 H         4.2991612182        2.5375610287        6.3593590264
 H         3.4685903858        6.1329109251        5.7745374002
 H         3.8434209394        5.1848582240        7.1120938513
 H         5.1061404557        5.4191670433        5.8250333540
 H        -0.0330793098        3.0120564516        3.8539380326
 H        -0.5837107463        3.2532051543        5.3614473317
 H        -3.8059420308        2.3047416182        4.7832330118
 H        -4.3514286503        1.0501304097        5.9147829954
 H        -1.2194684972       -0.9718387641        6.4591486292
 H        -2.6936807718       -0.6501619526        5.6017619204
 H        -2.6442949649       -0.6135335768        7.2830894351
 H        -0.2390295176        2.2535598447        7.7697300073
 H        -0.8279712594        0.8579253672        8.5174280767
 H         0.2934191653        0.7074257940        7.1499889498
 H        -5.9559062034        2.6186679806        6.7966648743
 H        -4.6255159102        3.7247595856        7.1287272765
 H        -9.2461732513        4.5480370144        6.7296061123
 H        -8.1068300169        3.2044766518        6.5966211754
 H        -8.6768669568        3.8714982783        8.1070768919
 H        -4.9878682301        6.7025211827        7.1038809257
 H        -5.6608753702        7.5094293754        5.8838199115
 H        -4.5490646290        6.3391728484        5.3872174963
 H        -7.5265101874        7.0277880763        5.1716037266
 H        -6.8991299568        6.1880023143        3.8042054760
 H        -8.2254966130        5.4591796282        4.6561719561
 Na        0.6938528940       -2.6504380027       -3.3868365692
