155

 C         4.1656912191       -2.9722221430       -5.7282150240
 C         2.9371913723       -2.3211833725       -4.9799299293
 C         2.5389277930       -0.8321823339       -5.2730889237
 C         0.9388134657       -0.6208486318       -5.3591432218
 C         0.2372458104       -0.5024385133       -6.6494336002
 C         2.8792328362        0.0016099008       -3.9713072363
 C         3.2359186046       -0.2632056900       -6.5827359335
 O         2.4377245311       -2.9105632417       -4.0096047569
 O         0.2993422963       -0.6547111914       -4.2891579698
 C        -0.7586242752       -1.6401817420       -6.9286476664
 C        -0.1049883354       -3.0152504015       -6.9911437355
 C        -1.0698561937       -4.2951943836       -7.3415701218
 C        -1.6751900899       -4.6914965654       -5.9527015544
 C        -1.1813219471       -5.7929240080       -5.0504986765
 O         1.0466489677       -3.1064664814       -6.6697421735
 O        -2.6171080198       -3.9902513751       -5.6065942098
 C        -2.1316028008       -3.8226180820       -8.2920826320
 C        -0.1872511802       -5.4799086061       -7.8778845844
 C        -1.8544170634       -5.7681275920       -3.6403567907
 C        -1.1562018854       -4.7671114537       -2.7238993091
 C        -0.3823883622       -5.2429533844       -1.3943893564
 C         0.0087215027       -4.0573340770       -0.4465248670
 C        -0.9253623983       -3.6457373862        0.7506444771
 C        -1.1972380880       -6.2952686697       -0.6119845078
 C         0.8217932701       -5.9767251753       -2.0333139369
 O        -1.0415056368       -3.6371396515       -3.2015671846
 O         1.0439897120       -3.4359614003       -0.6483303888
 C        -0.8646275668       -2.1368683107        0.8855578510
 C        -1.4105394553       -1.4174444756       -0.3239173895
 C        -1.2631422640        0.1436698712       -0.4898401620
 C         0.2675031887        0.3548699629       -0.4655472516
 C         0.9816067188        1.4849834013        0.2896207450
 O        -1.9456661138       -2.0228759869       -1.2508467152
 O         0.8724769777       -0.2340247128       -1.3080969051
 C        -1.7575315088        0.5596214429       -1.9190045105
 C        -1.9155288916        0.7786781604        0.6907721222
 C         2.4448055635        1.6310504575       -0.0091496731
 C         2.6949087811        2.7945064713       -1.1657968475
 C         3.5021535077        4.0047217311       -0.5687406015
 C         2.7619295183        4.5216597327        0.7518526603
 C         3.6010816015        5.4698334610        1.7326335394
 C         4.9206252522        3.6511373111       -0.1788428057
 C         3.5747197109        5.1748104668       -1.6587870123
 O         2.3052204018        2.6440636947       -2.3124345229
 O         1.5769177892        4.3563085142        0.9679624256
 C         3.2277443889        5.3318437394        3.2594841444
 C         3.4804474939        3.9964840602        3.7266233716
 C         3.2325648207        3.6125099620        5.2073781131
 C         1.6476737033        3.4704498465        5.3230057541
 C         0.9265742938        2.2712636878        4.7643904716
 O         3.9624961843        3.1299903100        2.9614945826
 O         0.9918528236        4.3771443079        5.8818121102
 C         3.9778047268        2.3273656927        5.6239691048
 C         3.6369375492        4.7636780743        6.1227007968
 C        -0.0597428838        1.6031337858        5.7646791419
 C        -0.9889505281        0.5224110152        4.9645297939
 C        -2.3953052566        0.1415745377        5.5137753458
 C        -3.2685706756        1.3472619822        4.8177764410
 C        -4.8177119672        1.0698494913        4.5799397731
 C        -2.7606924646       -1.2851617812        5.0531083235
 C        -2.4614362441        0.3264106036        7.0025767687
 O        -0.6060022981        0.1154368144        3.8928588642
 O        -2.6824321833        2.3350861510        4.3834789492
 C        -5.6133606377        2.4251167122        4.5852539832
 C        -6.8162931501        2.5571084551        3.8120295265
 C        -7.6969262781        3.7897862730        3.7310760412
 C        -9.0723797993        3.5104242969        4.4184472130
 C        -9.9224929324        2.4071134398        3.8414484876
 O        -7.1181876781        1.6246402940        3.1641475327
 O        -9.3910221961        4.2256788596        5.3731581596
 C        -7.1334563722        5.1019875456        4.3138530753
 C        -7.9629282482        4.1006614489        2.1857958945
 H         4.2095399823       -2.8721213620       -6.7861693280
 H         5.0151237985       -2.4799992823       -5.3789883537
 H         4.2321396083       -4.1081077271       -5.5771605766
 H        -0.1735658282        0.5404276936       -6.6961623544
 H         0.9413290497       -0.5096945060       -7.4243543016
 H         2.2993426686        0.9818510061       -3.8639839626
 H         3.9191360354        0.3167627137       -4.0588314935
 H         2.7594955197       -0.5879784829       -3.0618052312
 H         3.3227079459       -1.0012049777       -7.4167822826
 H         2.6496075883        0.5597215576       -6.9481783764
 H         4.1647468954        0.1704430739       -6.2435458342
 H        -1.4876820365       -1.7580570534       -6.1604088255
 H        -1.2555527359       -1.4393494805       -7.8946578708
 H        -1.3341205144       -6.7853126368       -5.6298128657
 H        -0.0871084663       -5.6911364675       -4.9634063680
 H        -1.8324678422       -3.2489986578       -9.1931979441
 H        -2.9001073843       -3.2192840766       -7.8757984597
 H        -2.6212993998       -4.6465580354       -8.7139897108
 H        -0.7529549800       -6.3916510998       -7.8420340110
 H         0.0523535680       -5.4390286342       -8.9478077595
 H         0.6770833666       -5.6766661881       -7.2647895464
 H        -1.8654489286       -6.7358603417       -3.1890731891
 H        -2.9061440584       -5.3672529505       -3.7525002504
 H        -1.9937927690       -3.9533076473        0.5309497797
 H        -0.8074092323       -4.0756442849        1.7165458413
 H        -2.0801888899       -5.8113994209       -0.1146397395
 H        -0.5834839555       -6.6512855152        0.1771612657
 H        -1.6727006288       -7.1169086439       -1.2639565601
 H         1.4660331872       -6.2066048895       -1.2508058824
 H         0.4595062310       -6.9266151975       -2.4340243863
 H         1.2680646023       -5.3539882213       -2.7898131705
 H        -1.5327070944       -2.0214970751        1.7766397784
 H         0.1547495992       -1.8075195321        1.0512257169
 H         0.5158719811        2.4517672394        0.1427873955
 H         0.8962021120        1.4696498287        1.3953684407
 H        -1.6728169258        1.6514224146       -1.9456995839
 H        -2.7691621316        0.1521890697       -2.1590235434
 H        -1.0701375593        0.0880850295       -2.5600422616
 H        -1.8069513577        1.8753457414        0.7623032270
 H        -2.9845898304        0.4530347452        0.7847902213
 H        -1.4869820800        0.4271775351        1.6872505274
 H         2.7729347607        0.6388328125       -0.3274624530
 H         2.9474149351        2.0570249490        0.9057495962
 H         4.6948070121        5.2900623964        1.6937117539
 H         3.4913123447        6.5457558096        1.5293412848
 H         5.3572835394        4.5411405708        0.1981211757
 H         5.5516091327        3.3571983370       -1.0362674012
 H         5.0746283490        2.7838387034        0.4767703858
 H         4.0912272154        4.7685145509       -2.4813198941
 H         2.5733313251        5.3068088851       -2.1487473051
 H         3.9843706610        6.0858788863       -1.3315130321
 H         3.8458642416        6.1691129162        3.7646443563
 H         2.2044483791        5.6356691020        3.5960372079
 H         0.3710078854        2.5557410343        3.9242323896
 H         1.7596138524        1.6716103135        4.5413388724
 H         3.4810067328        1.7697510049        6.3485159143
 H         4.8921016769        2.3975407402        6.1589702044
 H         3.9135258552        1.7813534223        4.7033075963
 H         3.1170631146        5.7120842299        5.8174579700
 H         3.4314746399        4.6709252958        7.1361584433
 H         4.6995831958        5.0373338844        6.1832892262
 H        -0.7172472062        2.3297381038        6.3598483425
 H         0.5126611561        1.0836896244        6.4968260436
 H        -4.9389744936        0.5752699758        3.6287964857
 H        -5.1520386819        0.2985387750        5.2604608390
 H        -2.0625708017       -1.9459307616        5.6089956046
 H        -2.4866023977       -1.3077800973        4.0514746227
 H        -3.7869143394       -1.5414715298        5.1945771202
 H        -2.5804080241        1.3714865495        7.3374691963
 H        -3.2806424256       -0.3113813363        7.4571038677
 H        -1.5779898669       -0.2058890080        7.3738772351
 H        -5.9533650742        2.6030922925        5.6295350409
 H        -4.8316111345        3.2291129545        4.5640597430
 H        -9.5191858736        1.5353430259        4.1575807968
 H       -10.9448984307        2.4048411098        4.2828020895
 H       -10.1319675591        2.4748575896        2.7801549589
 H        -6.5068235949        4.8338792391        5.2177867486
 H        -7.9705293593        5.6144033745        4.7917498765
 H        -6.5046549032        5.8112491451        3.6766238350
 H        -8.7428861119        4.8293094928        1.9442582204
 H        -7.0927828353        4.5178037744        1.7756890598
 H        -8.2853311922        3.1815768024        1.7240338995
 Na        0.5390914228       -2.0753739482       -2.5470510925
