155

 C         3.8248467723       -3.0003922651       -5.7734503216
 C         2.7619849765       -2.2645757252       -4.8422290049
 C         2.4292049337       -0.7727788154       -5.0604194647
 C         0.8660727128       -0.7003906802       -5.4050584062
 C         0.2459200984       -0.4548136672       -6.7629297461
 C         2.5961956753        0.0585750315       -3.8056755734
 C         3.2307519505       -0.1472357201       -6.2200809499
 O         2.1834545990       -2.8598058667       -3.9588007964
 O         0.0541384559       -0.9461120905       -4.5295467653
 C        -0.8976221399       -1.4336130055       -7.1356521105
 C        -0.2447230338       -2.8725339375       -6.9678975863
 C        -0.9578239928       -4.2435699815       -7.3427191177
 C        -1.5590876457       -4.6767026522       -5.9584222052
 C        -0.8231007223       -5.7238624925       -5.1864077726
 O         0.8630324851       -2.9674327171       -6.5311770889
 O        -2.5745871102       -4.1065168434       -5.5678631862
 C        -2.1080866902       -4.0880219361       -8.3251364050
 C         0.0211973619       -5.2445650062       -7.8441430697
 C        -1.3719867331       -5.9926524459       -3.7489527574
 C        -0.7996235321       -4.9200929416       -2.8330622892
 C        -0.1993581592       -5.3142386580       -1.4477262194
 C         0.0545810015       -3.9799581031       -0.5554072244
 C        -0.8318845775       -3.4937763964        0.6274703939
 C        -1.1548222761       -6.2760174696       -0.7185787617
 C         1.1219051554       -6.0647677827       -1.7097340801
 O        -0.8390802030       -3.7775208014       -3.2099079044
 O         1.0308851380       -3.3074449764       -0.7303802866
 C        -0.9708793005       -2.0111934913        0.8737287390
 C        -1.6385754818       -1.2148661910       -0.2261838908
 C        -1.3423141638        0.3348217695       -0.2150425229
 C         0.2531022813        0.5805560090       -0.4715922381
 C         0.9047417179        1.7165196984        0.2997979308
 O        -2.2934222891       -1.8068518943       -1.0542171675
 O         0.8802576177       -0.1756320065       -1.1282693811
 C        -1.9904573368        0.9492482078       -1.4944541964
 C        -1.7439896615        0.9921395154        1.1274192691
 C         2.4399946636        1.6904908262        0.2314435171
 C         2.8840761865        2.7751274454       -0.8488800141
 C         3.6932263719        4.0253208801       -0.3219384522
 C         2.8871494533        4.6131147099        0.8896679892
 C         3.5242823594        5.5513104882        2.0075418083
 C         5.1426917052        3.5554924447        0.1213614223
 C         3.7782082785        5.1374092432       -1.3781842504
 O         2.7276708583        2.5272853993       -2.0580212276
 O         1.6785270146        4.3758000980        1.0098778396
 C         2.8335729548        5.3298353899        3.3603584680
 C         3.2202446496        3.9852141027        3.8171345096
 C         3.2772473494        3.7283559857        5.4407247947
 C         1.7011219579        3.4263900962        5.5040623364
 C         1.1186990125        2.1556721564        5.1347656925
 O         3.4735102146        3.0400716891        3.0855462014
 O         1.0348994807        4.3864650930        5.9301414665
 C         4.1101857630        2.4120792054        5.7458953994
 C         3.6831421269        4.9539621653        6.2099782961
 C        -0.3870178757        2.0833949003        5.3467679752
 C        -0.9091343975        0.6660560004        4.7954073503
 C        -2.4111110674        0.3716600597        5.1362620062
 C        -3.3254137474        1.2372975840        4.2783286845
 C        -4.8726552923        1.0001064196        4.4922805445
 C        -2.6172213646       -1.1898661017        4.7686738226
 C        -2.7298381649        0.4987011956        6.6458351926
 O        -0.2646010794       -0.1155651282        4.1317069276
 O        -2.8891494597        1.9558492202        3.3396645539
 C        -5.5471660397        2.3964799112        4.2046185401
 C        -6.8267374106        2.3695029688        3.3954860861
 C        -7.7541988301        3.6820850623        3.5005824067
 C        -9.0519771451        3.2052299332        4.2536407338
 C        -9.6106668714        1.7234550350        3.9577333037
 O        -7.0177194641        1.4633039311        2.6470318514
 O        -9.6945619913        3.9357341451        4.9577872554
 C        -7.1981686276        4.8575377168        4.2722657178
 C        -8.0808884875        4.0066904833        2.0814173569
 H         3.6317849485       -2.9701444225       -6.8318399347
 H         4.7910872262       -2.5489023426       -5.6578164608
 H         3.9699640014       -4.0604449007       -5.4318851412
 H        -0.2295320957        0.5073732040       -6.7886252082
 H         1.0079300851       -0.3324512099       -7.4732428731
 H         2.6968117491        1.1256984833       -4.1628666295
 H         3.4839908856       -0.1539142387       -3.1543577339
 H         1.6874073346       -0.1515529572       -3.1679109813
 H         2.6457573900       -0.2815681813       -7.2081210867
 H         3.4334609514        0.9033262236       -6.0573584827
 H         4.2139563194       -0.5773455333       -6.5113356867
 H        -1.6056489072       -1.4142440952       -6.3711506086
 H        -1.3093942743       -1.1085252163       -8.1014599920
 H        -1.0646680631       -6.7069531537       -5.6659403947
 H         0.2197834226       -5.5234916963       -5.1867643606
 H        -1.7399769551       -3.7656409178       -9.2761430879
 H        -2.9010536562       -3.4077154430       -8.0868199331
 H        -2.6680922107       -4.9293747154       -8.5616311984
 H        -0.3210958279       -6.2534753949       -8.1015033136
 H         0.6273971154       -4.8138646324       -8.6882618497
 H         0.8627555302       -5.2857480535       -7.1158261611
 H        -1.0147702054       -6.9419212795       -3.5224825754
 H        -2.4639495513       -5.8511609037       -3.7738993424
 H        -1.8801654755       -3.9504890709        0.7009309140
 H        -0.4805680617       -4.0737944328        1.4561832246
 H        -2.1903231774       -6.0836162496       -1.1259953511
 H        -1.1537483986       -6.1955948931        0.3240262517
 H        -0.9159673360       -7.3311186814       -0.9046430694
 H         1.4409016597       -6.6024602087       -0.8404421054
 H         0.8570970828       -6.7841186282       -2.5049228390
 H         1.8543219502       -5.3138178104       -1.9885645544
 H        -1.5620434260       -1.8539640095        1.8288296748
 H         0.0592575855       -1.6808579180        0.9902378435
 H         0.6608175743        2.7430698980        0.1490214486
 H         0.7504773288        1.6024451615        1.3456252050
 H        -1.7257061722        2.0997492940       -1.4857539425
 H        -3.0634110148        0.7708384274       -1.4562152203
 H        -1.5124566761        0.3436619442       -2.3012327677
 H        -1.5837019031        2.0320297243        1.2066748000
 H        -2.7948095196        0.7904054086        1.2968255354
 H        -0.9789781306        0.7560214324        1.9864234184
 H         2.7951589645        0.7213548142       -0.0382309891
 H         2.8299128323        1.9352258512        1.2605105886
 H         4.5744783551        5.2411774925        2.1256840613
 H         3.6150597222        6.5542354262        1.5674768065
 H         5.7482384287        4.4546177712        0.1779792627
 H         5.7497496415        2.9446188427       -0.6093780884
 H         5.1993382077        3.1295666415        1.1221443065
 H         4.0833836594        4.6802537471       -2.3140320415
 H         2.7474408970        5.6152419105       -1.5150098586
 H         4.4749523021        5.8998389752       -1.1921796157
 H         3.1522658304        6.0102425117        4.2092724196
 H         1.7557592759        5.4197025726        3.1979366183
 H         1.4024582313        2.0382625305        4.1077205409
 H         1.7174376798        1.4166034211        5.7293800456
 H         4.0950908637        2.1881161196        6.7792454146
 H         5.1767462621        2.6584661596        5.5386162646
 H         3.7011096904        1.5388620654        5.2002616311
 H         2.8980117327        5.4177088960        6.8663730765
 H         4.4721120362        4.7951978185        6.8340952541
 H         4.0707939634        5.8382351211        5.6501345962
 H        -0.9429264872        2.8753274686        4.7670277152
 H        -0.6755617967        2.2392779366        6.3544396827
 H        -5.1457017124        0.2550792514        3.7402317839
 H        -5.1343782421        0.6074272862        5.4721018627
 H        -1.9738625438       -1.7901237049        5.4865774870
 H        -2.3840057285       -1.3686270896        3.7722963678
 H        -3.6632500600       -1.4163752670        4.8314187464
 H        -2.4626239734        1.5203958126        6.9383713673
 H        -3.7885090956        0.2974109827        6.8346170746
 H        -2.1270138705       -0.1396748419        7.2990330403
 H        -5.7196139825        2.7455330766        5.2394788231
 H        -4.7964558061        3.0776151412        3.7958213402
 H        -9.1441007010        0.9937848420        4.5880665908
 H       -10.6920341175        1.7263335722        4.2302921708
 H        -9.6201578544        1.3970581575        2.8457992992
 H        -7.4377517680        4.8136010165        5.2863960611
 H        -7.7222577777        5.7716118878        4.0716796102
 H        -6.1174045041        5.0834727457        4.0373542544
 H        -8.7418799117        4.8206469311        1.8049217767
 H        -7.0827898326        4.1795737459        1.7145959656
 H        -8.4962092511        3.1078325907        1.5664660200
 Na        0.5235733218       -2.1852990174       -2.4368892465
