155

 C        -2.5262172787       -8.8275535179        4.0812824922
 C        -1.8386718367       -8.5756805442        2.7495218660
 C        -0.3709935439       -8.0383511953        2.5030384045
 C        -0.8338845462       -6.7443978211        1.6785598482
 C        -0.9622196235       -6.9756667389        0.1579363620
 C         0.2323604032       -7.5008700715        3.7640791826
 C         0.5282560279       -9.1430218985        1.6869080524
 O        -2.5463503569       -8.7352482119        1.7465882898
 O        -1.2988184362       -5.7959005205        2.2274209492
 C        -1.8860321335       -5.9247494779       -0.4938736685
 C        -1.4296757480       -5.4765335903       -1.9212610777
 C        -2.2246917454       -4.0715449363       -2.4619698399
 C        -1.0385975116       -3.1250546588       -2.1482878359
 C         0.1179761375       -3.0740079807       -3.2546231516
 O        -0.3359133285       -5.7549575440       -2.3374588634
 O        -1.0183319106       -2.4535301558       -1.1216835013
 C        -2.5540968110       -4.3402899806       -3.9820266882
 C        -3.3846731636       -3.5690756398       -1.6253162044
 C         1.4905392744       -2.6278439042       -2.5499158542
 C         1.2744504638       -1.1621803099       -2.2619289948
 C         2.1944765525       -0.4283206935       -1.1031787232
 C         2.9082160811        0.7710494004       -1.7503918741
 C         4.4239039476        0.7643252669       -2.1765513193
 C         1.0671998016       -0.0231486997        0.0122247936
 C         3.1698301981       -1.4614298539       -0.4295022154
 O         0.4108185302       -0.4958467551       -2.7914885094
 O         2.2729839618        1.7388526039       -2.1408637273
 C         4.6379495727        1.6752328539       -3.4799156573
 C         4.6651021583        0.7858435239       -4.6697538455
 C         4.9231547725        1.5236491740       -6.0446043118
 C         3.6193873970        2.2453637298       -6.5616180151
 C         2.5105792136        1.2220710742       -7.1385062821
 O         4.4210873037       -0.4006974532       -4.6614230091
 O         3.5971844279        3.4545192794       -6.5837312014
 C         5.9727380724        2.6682576144       -5.9029801818
 C         5.4087910293        0.4840355373       -7.0946663018
 C         1.2089266900        1.9814993289       -7.2463263098
 C         0.5081853335        2.2376409238       -5.8087625751
 C        -0.7536301286        3.1551787310       -5.8370845942
 C        -1.7737532172        3.1174970599       -4.5149059652
 C        -2.6681651592        4.2911402307       -4.3446189985
 C        -0.2149387213        4.6311015694       -6.2511166928
 C        -1.8566983690        2.7934989038       -6.8250200904
 O         0.9385420279        1.6963283557       -4.8608914753
 O        -2.0775133239        2.1059668917       -3.8679949863
 C        -2.8796253047        4.7326312149       -2.8063461381
 C        -1.3740772188        4.7061905034       -2.2282947876
 C        -1.1572559537        4.7944653661       -0.6236186397
 C        -1.8461197344        3.4318088707       -0.0569568061
 C        -2.8592631429        3.3502866947        1.1157968570
 O        -0.4008135637        4.3856527484       -2.8861601817
 O        -1.5035698787        2.4194211299       -0.6625395239
 C         0.4286218711        4.8401677907       -0.3017047488
 C        -2.0278659857        6.0149801466       -0.2675352932
 C        -2.4912966976        3.9753581314        2.4697438454
 C        -1.1137709948        3.5486653495        3.0654897392
 C        -0.9298333446        3.5266226718        4.5835817703
 C        -1.5212046960        2.1929289528        5.1264692883
 C        -1.2292461726        1.8492893232        6.5286116279
 C         0.5818266364        3.6638980031        5.0418991837
 C        -1.7722221827        4.6452082966        5.1937686861
 O        -0.1475171594        3.5824755449        2.3491918800
 O        -2.1017167897        1.3846286296        4.4222976164
 C        -1.8312755325        0.4165390804        6.8624380235
 C        -1.4292413311        0.0325648508        8.3286631860
 C        -2.6089382431       -0.1423380251        9.4228744863
 C        -3.5926479863        1.0784465467        9.4499710814
 C        -4.7868769846        1.0039132189       10.4131188734
 O        -0.2783349308       -0.2364332164        8.6982707951
 O        -3.6093137819        1.8081949107        8.4821646954
 C        -3.5443989495       -1.2637881205        8.7091827163
 C        -2.0476496250       -0.7386289184       10.7183490148
 H        -3.4276709477       -9.4936878081        3.8953086440
 H        -1.9540599615       -9.2076893197        4.9150388586
 H        -2.8343609202       -7.7972793205        4.4281233697
 H        -0.0618584277       -6.8963035870       -0.2786869005
 H        -1.4307254725       -7.9135675503       -0.0498862354
 H        -0.2866386842       -6.5626024727        3.8852427891
 H         1.2817512384       -7.3425651501        3.7161733772
 H        -0.0832313990       -8.0844488942        4.6156292949
 H         0.1186576222       -9.3584148656        0.6426596217
 H         1.5415390114       -8.7419035730        1.6921285986
 H         0.5271710869      -10.0379074655        2.2698966771
 H        -2.9104122389       -6.2272305838       -0.4006018643
 H        -1.8510525600       -5.0015967849        0.1108234855
 H         0.2423284361       -3.9775279630       -3.8267808095
 H        -0.2176100500       -2.3983686484       -4.0532516442
 H        -2.5673648494       -3.4782908804       -4.7183412114
 H        -3.6042246381       -4.8007027862       -4.0024965466
 H        -1.8817195784       -5.0156861212       -4.4518622824
 H        -3.3947040921       -2.4905602556       -1.4315487980
 H        -4.3783974851       -3.8171903672       -1.9922352652
 H        -3.4039060852       -4.1599847270       -0.7157274316
 H         2.5140607169       -2.9018381119       -2.9922909506
 H         1.4397977015       -3.1876024740       -1.6268692324
 H         5.0305782702        1.0318277592       -1.3023712753
 H         4.7066107136       -0.3041342243       -2.4003852028
 H         0.6128102101        1.0021724227       -0.2156555204
 H         1.6646941232       -0.0008883181        0.9322297339
 H         0.4098086401       -0.8827820297        0.1030228453
 H         2.5004259770       -2.2437623429       -0.1643558142
 H         3.9911402126       -1.8389080752       -1.0810488215
 H         3.5022046417       -1.0482697518        0.5022771056
 H         3.8318444559        2.4610775279       -3.5930874641
 H         5.5345893836        2.2148917283       -3.3981355737
 H         2.7740860051        0.8400992175       -8.0754347194
 H         2.4890579119        0.3602369240       -6.5125147932
 H         5.8795009515        3.1092096621       -4.9392183041
 H         6.0046592024        3.2980255163       -6.7352664381
 H         6.9436467384        2.1367482384       -5.8544015034
 H         5.9065906717       -0.2654496784       -6.4424795296
 H         4.6158957340       -0.0844811574       -7.6355447938
 H         6.1646219333        1.0439663924       -7.6955545015
 H         0.3811395014        1.4617974246       -7.8331745291
 H         1.2852697713        2.9470411731       -7.7726038793
 H        -2.3965393311        5.2734198833       -4.8122662608
 H        -3.6121748213        4.0795130029       -4.8145985052
 H         0.7133216689        4.8405479621       -5.6941128432
 H        -1.0481987450        5.3555128614       -6.0711351153
 H         0.1309462388        4.6119812807       -7.2853720057
 H        -2.6190979917        3.5498969450       -6.7666556988
 H        -1.5714395003        2.8459885143       -7.8975784167
 H        -2.3021120118        1.7795563152       -6.6931736866
 H        -3.3086940526        5.6862340074       -2.7735091629
 H        -3.5353374957        4.0885038743       -2.1929155379
 H        -3.8637951576        3.5469834780        0.6361120693
 H        -3.0683858285        2.2827722315        1.1467769093
 H         0.9514135358        3.9841672903       -0.7569606777
 H         0.4979726999        4.8780257723        0.7415398482
 H         0.8974181654        5.7461408945       -0.7711898383
 H        -1.9953865614        6.1167311681        0.8043097743
 H        -1.5711120082        6.8418569245       -0.8819233021
 H        -3.0494102928        5.9963557555       -0.6114251401
 H        -3.2956086644        3.7604274541        3.2261883459
 H        -2.4071407404        5.0441226148        2.5212069667
 H        -0.1879434078        1.9965249122        6.7959200128
 H        -1.7120864487        2.5861708652        7.1664704603
 H         1.1601428329        2.8791976839        4.5498265715
 H         0.5783615050        3.5780661671        6.1302350114
 H         0.9640579576        4.6169937956        4.6578490537
 H        -1.3436603398        4.8337754123        6.1443186390
 H        -1.5622425943        5.5640347682        4.5863148668
 H        -2.8297093872        4.3737145185        5.1017852811
 H        -2.8922158315        0.4144500505        6.8879960223
 H        -1.5052539804       -0.3965942323        6.2402808388
 H        -5.2820735013        1.9976524961       10.4543944461
 H        -5.5207735332        0.2703435761       10.0867674748
 H        -4.6088978179        0.7048944153       11.4561103248
 H        -4.4425416187       -1.3925313480        9.2695951755
 H        -3.1290371929       -2.2275037607        8.6027017718
 H        -3.9914850287       -1.0153819779        7.7463517574
 H        -2.8400017201       -0.9998328960       11.3645828364
 H        -1.4229481765       -1.5546368812       10.5116516979
 H        -1.4840063518        0.1205454652       11.0827257068
 Na       -0.0532462188        1.7719314605       -2.7022965357
