155

 C         3.9485104137       -2.4556497493       -5.0878568241
 C         2.8479915859       -1.6522292740       -4.5237084416
 C         2.3410823683       -0.3983231526       -5.2397893475
 C         0.8122606878       -0.6354089207       -5.5064265098
 C         0.3740193873       -0.7049299995       -7.0617606531
 C         2.5767483780        0.7898888959       -4.2658152188
 C         3.1548571294        0.0608369326       -6.5556581792
 O         2.3402249200       -2.1221850868       -3.5160162768
 O        -0.0140023373       -0.7970559203       -4.6422305981
 C        -0.7521938812       -1.7257770728       -7.0989012286
 C        -0.3302096793       -3.1809525942       -7.1204796926
 C        -1.2558501079       -4.3832412805       -7.4532475545
 C        -1.4976890667       -5.0627754998       -6.0424902479
 C        -0.2979438692       -5.7926057643       -5.4517393331
 O         0.8190176647       -3.4307455989       -6.9124675693
 O        -2.6096703271       -5.0362328105       -5.5605904787
 C        -2.6766186725       -4.1304400910       -8.0582472437
 C        -0.5015072622       -5.3758109990       -8.3851874285
 C        -0.5027798534       -6.1782431417       -3.9737188578
 C        -0.3715170609       -5.0207587151       -2.9688635249
 C        -0.2326378316       -5.3587766939       -1.3870555614
 C        -0.1990471286       -4.0691778383       -0.5062399986
 C        -1.4058233999       -3.6778152824        0.3071362055
 C        -1.3251109686       -6.3170966501       -0.9373818033
 C         1.1850227301       -6.0803557102       -1.2229799850
 O        -0.4830703748       -3.8742025568       -3.3759779744
 O         0.7985844074       -3.3367506339       -0.5231042603
 C        -1.3904795549       -2.1968124666        0.8102410372
 C        -1.3270271484       -1.2389422308       -0.3670576481
 C        -0.9667102953        0.2710527387       -0.2004243686
 C         0.5671107673        0.4442567975        0.0184136178
 C         1.0562380701        1.6428887995        0.8939078505
 O        -1.6765163313       -1.6067173740       -1.4701164443
 O         1.2470692760       -0.2182451259       -0.7854238922
 C        -1.2946663896        1.1273588066       -1.4793038367
 C        -1.7576561436        0.6998991002        1.0725509224
 C         2.6605877905        1.6314388237        0.6773903694
 C         3.0991340666        2.7573087194       -0.2656198443
 C         3.8642752347        4.0764924414        0.2492851159
 C         2.9164146717        4.9197707778        1.2736696982
 C         3.4716664378        5.8650742532        2.3484373464
 C         5.2283950729        3.5818824943        0.7984631438
 C         4.1699768289        4.8627797732       -0.9891845025
 O         2.9029129231        2.6054237002       -1.4403688004
 O         1.7378689831        4.7215239487        1.1509706679
 C         2.7630545438        5.5542636480        3.6593582162
 C         3.1130684685        4.2032323904        4.0510570661
 C         3.0692580297        3.8168841698        5.6898796650
 C         1.5673700765        3.4086699546        5.7879472292
 C         1.1646634369        2.0360603179        5.1255786333
 O         3.2516385177        3.3567348289        3.2599790033
 O         0.8345532070        4.1666426846        6.3169027525
 C         4.1191188691        2.7360132917        6.0002865597
 C         3.3682509346        5.0114081132        6.5496800048
 C        -0.3182292509        2.1139124536        4.7882931793
 C        -0.9936176052        0.7037533157        4.5521838566
 C        -2.4941426321        0.6072645943        5.0455112824
 C        -3.3114767719        1.7570708071        4.4271543795
 C        -4.7128384623        1.3166513849        4.0369027704
 C        -2.9481307041       -0.7999665568        4.5300225172
 C        -2.5841731281        0.5422107055        6.5633298316
 O        -0.3946782288       -0.1814208103        3.9471323998
 O        -2.9593284247        2.8742643645        4.2892635428
 C        -5.7694523233        2.4622197270        3.8327631509
 C        -6.8967389537        2.2075481213        2.8148676508
 C        -8.1573633109        3.1505440647        2.8803676977
 C        -9.2864847204        2.4897059403        3.8732960831
 C        -9.5935672490        1.0714778829        3.7300875240
 O        -6.7390234105        1.3333664476        1.9071893963
 O        -9.7563486741        3.1696682950        4.7804246609
 C        -7.7285141495        4.5541323430        3.5242633847
 C        -8.6770429060        3.3051036050        1.4901574646
 H         3.7714227322       -2.6266716037       -6.1760111139
 H         4.9013331172       -1.8319067447       -5.0450713742
 H         4.1649515365       -3.3331031830       -4.5761796898
 H         0.0296828398        0.2364819575       -7.3435058794
 H         1.3360888547       -0.9540795099       -7.5858563970
 H         2.2825088119        1.6379816696       -4.7527853876
 H         3.6266494732        0.8210833501       -4.0072176298
 H         1.9354381382        0.6815037479       -3.4421075884
 H         3.7439883033       -0.5859865926       -7.1442209900
 H         2.6210476064        0.5714312467       -7.3760295185
 H         3.8940216956        0.7516757977       -6.2237569996
 H        -1.3800731225       -1.6950052882       -6.2218184617
 H        -1.3557176626       -1.5435333173       -8.0733576927
 H        -0.0281170680       -6.6711948376       -6.0317496596
 H         0.5357149661       -5.1508388528       -5.5442094567
 H        -2.6442206885       -3.5501440627       -8.9769586292
 H        -3.3574384012       -3.4265106613       -7.4833760426
 H        -3.2230315044       -5.0842424256       -8.3824496672
 H        -0.9264573693       -6.3328093259       -8.3241418642
 H        -0.6891257004       -5.0632086067       -9.3871357333
 H         0.5414981078       -5.4582266693       -8.1235803006
 H         0.2094749877       -6.9838123390       -3.7751749255
 H        -1.5805484258       -6.5457770531       -3.8676422072
 H        -2.3534476111       -3.6513635926       -0.3115767116
 H        -1.5672032978       -4.4777588115        1.0556865423
 H        -2.2818138451       -6.0886605513       -1.3940252658
 H        -1.5338285253       -6.2149072158        0.1539856673
 H        -1.1366933148       -7.2882390574       -1.1964849142
 H         1.2355851040       -6.5326017496       -0.2216168005
 H         1.2760061039       -6.8337868029       -1.9721915824
 H         1.8844114158       -5.3147018862       -1.4475942375
 H        -2.1958836047       -1.9979969000        1.5010210096
 H        -0.5190496834       -1.9914534398        1.3778390869
 H         0.7035580461        2.5783813620        0.4459333932
 H         0.8211367488        1.6159681642        1.9396465596
 H        -0.9755562669        2.0885115418       -1.3042190429
 H        -2.3679413023        1.0588837636       -1.6393417890
 H        -0.7666057799        0.7099264519       -2.3489649067
 H        -1.4526186867        1.7033787676        1.3822830079
 H        -2.8142842330        0.6758087318        1.0455588071
 H        -1.5876253497       -0.0466009916        1.7821756583
 H         3.0474933431        0.7018880333        0.2992490100
 H         3.2899791917        1.7739006804        1.5876598659
 H         4.5422176789        5.7969153566        2.3124151939
 H         3.1976893131        6.8818653357        2.0282781487
 H         5.8367698137        4.4401990298        1.0553805629
 H         5.7683327011        2.8985871365        0.1099023493
 H         5.1390367690        3.0469063766        1.6888484902
 H         4.6921076191        4.1795783544       -1.7298871662
 H         3.3968563409        5.2975383617       -1.5870234560
 H         4.8707084915        5.6545969140       -0.7200265194
 H         2.9023616548        6.2666126978        4.4196075004
 H         1.7490651620        5.4659354869        3.3378322818
 H         1.8955602327        1.8963693214        4.3217020558
 H         1.3889252916        1.1280756995        5.8530767144
 H         3.6091609249        1.9314290089        6.5446799666
 H         4.8939748305        3.1647267772        6.6392839465
 H         4.7636929285        2.4915613642        5.1459692443
 H         2.5417232495        5.6712199068        6.5528744945
 H         3.4226122589        4.6216452469        7.6578707368
 H         4.2300793132        5.6040395296        6.3405979524
 H        -0.3697558140        2.8220669887        3.9546782656
 H        -0.8398340509        2.5990236640        5.6254705062
 H        -4.5376312348        0.8501620634        3.0340155879
 H        -5.1338677368        0.6590867751        4.8630865227
 H        -2.1924909701       -1.5494863388        4.7052404775
 H        -3.1161516040       -0.8485686746        3.4345387214
 H        -3.8161701012       -1.1130250883        5.1105450730
 H        -2.2180145763        1.5056833049        6.9474020212
 H        -3.5802321383        0.5824285655        6.9562023984
 H        -2.0064616750       -0.3094312419        7.0217231889
 H        -6.3993599842        2.4376587696        4.7710872566
 H        -5.3130515817        3.4040000214        3.6204155198
 H        -8.5955075275        0.5268636467        3.9908056574
 H       -10.3618720910        0.7698465281        4.4170810049
 H        -9.7572414457        0.7724589940        2.7317793728
 H        -7.4479548989        4.3361357282        4.5266416291
 H        -8.4838556691        5.3463193881        3.3817275928
 H        -6.8653016345        5.1173227183        3.2069728269
 H        -9.4710727815        4.0057890254        1.4353360955
 H        -7.9029744214        3.6609998725        0.7999052548
 H        -8.9605346455        2.2795851086        1.1324818395
 Na        0.4201506325       -1.7880925613       -2.6450355603
