155

 C        -2.2894749026       -8.8844971711        4.1598034298
 C        -2.0626790153       -8.4735572356        2.7533857609
 C        -0.6080001497       -7.9237206639        2.4569432231
 C        -0.7851883397       -6.7409617536        1.5018923916
 C        -0.8490727768       -6.9032017000        0.0486295274
 C         0.2177857074       -7.5161802605        3.6667183281
 C         0.2248959876       -9.1049120022        1.8499874820
 O        -2.7758516863       -8.6658695890        1.7825575056
 O        -1.1133521598       -5.6314441154        1.9934266631
 C        -1.9255397898       -5.9438898081       -0.5290925710
 C        -1.5733017044       -5.3375469868       -1.8452061545
 C        -2.2741630779       -4.0274044009       -2.4373387652
 C        -0.9369313017       -3.0940220521       -2.1994752639
 C         0.0738507762       -3.0650586135       -3.3832434079
 O        -0.5876380716       -5.8002746862       -2.4175778995
 O        -0.6894845202       -2.7097080403       -1.0801855561
 C        -2.7005414668       -4.3889689730       -3.8490873592
 C        -3.6275415093       -3.6622003599       -1.6613992684
 C         1.3619459020       -2.5603038820       -2.7776178390
 C         1.1407302965       -1.2169600258       -2.1652565196
 C         2.0036891563       -0.5588720033       -1.0542532887
 C         2.7075981979        0.7252823930       -1.7525597644
 C         4.1740043571        0.6023305488       -2.0660875178
 C         1.0665618674        0.0674093883        0.0697247539
 C         3.0753850254       -1.4274616723       -0.3655693503
 O         0.3724163539       -0.4338718594       -2.7289871875
 O         2.1228066585        1.7895674992       -1.8846921359
 C         4.6386868565        1.4286727211       -3.1985493219
 C         4.4751609133        0.8012298534       -4.6679624779
 C         4.7795502626        1.5979917792       -6.0173397461
 C         3.3642998398        2.1435277584       -6.5950860665
 C         2.2737230485        1.1057545995       -6.9270688011
 O         3.9675756423       -0.2995982488       -4.6982775973
 O         3.2463597438        3.3108323125       -6.8550491606
 C         5.7959995523        2.7387380377       -5.7606435529
 C         5.3601196355        0.5292146755       -7.0281561538
 C         0.9885734978        1.7610845087       -7.1489509796
 C         0.4162936367        2.2326284616       -5.8335954270
 C        -0.8453919115        3.1804632813       -5.9813094877
 C        -1.7645831741        3.0738818669       -4.6579245639
 C        -2.7170469352        4.1730171998       -4.3304086726
 C        -0.2517792196        4.6727786368       -6.0595429732
 C        -1.7170075808        2.6794892405       -7.1618007100
 O         0.9153478916        1.9520316347       -4.7316890017
 O        -1.6909623435        2.0973921841       -3.9829230869
 C        -2.7740471202        4.6929017771       -2.8656460532
 C        -1.3077873133        4.6626164392       -2.2192012492
 C        -1.1787629573        4.8770176494       -0.6183267995
 C        -1.7655157342        3.4813882679       -0.1500730973
 C        -2.6889294298        3.3201182080        1.1804772953
 O        -0.3250191943        4.3197760940       -2.8103906684
 O        -1.3866455595        2.5122642692       -0.7686902438
 C         0.2789317397        5.0758643886       -0.2398621725
 C        -1.9321608682        6.1808042029       -0.1598355369
 C        -2.3557526094        3.8170087607        2.5328232936
 C        -0.9011042539        3.6730450525        3.0238005108
 C        -0.7507224467        3.6725320212        4.5794443928
 C        -1.2279445330        2.2273183145        5.0842115663
 C        -1.0013066098        1.7517388855        6.5283910566
 C         0.7359455001        3.9184809716        4.9745619766
 C        -1.6624123396        4.7564157419        5.3280813145
 O         0.0542117332        3.4783736510        2.3101800700
 O        -1.6509366325        1.4318974449        4.3196759621
 C        -1.5641471413        0.4062504450        6.7818061551
 C        -1.3497675493       -0.0447454136        8.3268452606
 C        -2.6428180842       -0.3967199053        9.2144803849
 C        -3.4403848368        0.9979020446        9.2991978977
 C        -4.5610366619        1.0997653690       10.3046986256
 O        -0.2564027923       -0.1149975359        8.7965209205
 O        -3.1978611690        1.9587673540        8.5565356239
 C        -3.5114526173       -1.6100126110        8.7039546402
 C        -2.0834549865       -0.6761662953       10.7014669761
 H        -3.1511938666       -9.5008238623        4.2321122327
 H        -1.4041991341       -9.5218399211        4.3997181840
 H        -2.2360669471       -8.1531250477        4.9076088431
 H         0.1651107166       -6.5897696947       -0.5020884749
 H        -1.1258880017       -7.9649002800       -0.1319131787
 H        -0.3557619146       -6.9762789489        4.4154112356
 H         0.9821815702       -6.8101968422        3.2865545671
 H         0.6758141820       -8.3775148735        4.1444692045
 H        -0.3120351187       -9.3471265272        0.9687938778
 H         1.2874046268       -8.8333507984        1.6277170754
 H         0.3876864028       -9.9457652857        2.6444503937
 H        -2.9745705850       -6.3247048911       -0.4874088152
 H        -1.9826399514       -5.0747981368        0.1527655121
 H         0.3151070930       -3.9458265510       -4.0464277911
 H        -0.3192946165       -2.3864212677       -4.1615893785
 H        -3.2958143378       -3.7334324571       -4.4188020153
 H        -3.2731986700       -5.2691684665       -3.7645755981
 H        -1.7814625953       -4.6218237495       -4.5111809181
 H        -3.7746665056       -2.6735542503       -1.3150550227
 H        -4.4608275386       -3.7707463900       -2.3398679856
 H        -3.9140927068       -4.4310078698       -0.9500262964
 H         2.0169640670       -2.6593255400       -3.6119000519
 H         1.7255898293       -3.3294201903       -2.0154806849
 H         4.5796778837        0.8706601021       -1.0765520103
 H         4.4672733203       -0.3946992677       -2.2752491462
 H         0.5796173970        0.8252654824       -0.4120470438
 H         1.7100098904        0.4800736628        0.8587101905
 H         0.4327416249       -0.7201474448        0.4175968198
 H         2.6766426642       -1.8823059119        0.5717496293
 H         3.4200398842       -2.1355665488       -1.0542194690
 H         3.9098125337       -0.7484835334       -0.1267700521
 H         4.0606646611        2.3344347895       -3.2498702679
 H         5.7191508408        1.7391423354       -2.9727720475
 H         2.5574913598        0.5079575122       -7.8728963016
 H         2.3882085877        0.3390109095       -6.1149650159
 H         5.2998457009        3.7184995678       -5.5788492989
 H         6.3711792273        2.7069271160       -6.7385172542
 H         6.4472658721        2.5236760942       -4.8867936551
 H         6.4372896501        0.6565135444       -7.0490282134
 H         5.1132156291       -0.4064780208       -6.5892827202
 H         4.9302601927        0.6798374328       -8.0174397139
 H         0.2082361157        1.3052505407       -7.6737916789
 H         1.1641820511        2.6927683510       -7.6894785758
 H        -2.4507638333        5.0938696194       -4.7813116746
 H        -3.7409369320        3.9139973835       -4.7139935165
 H         0.1886603511        4.9650482780       -5.0711609152
 H        -1.0468036642        5.3156451695       -6.3131797497
 H         0.6670329601        4.6488880301       -6.6953650730
 H        -2.7270267333        3.1513451197       -7.2609500724
 H        -1.3738270267        2.6486177146       -8.1680278678
 H        -1.9416850967        1.6868716359       -6.8527453507
 H        -3.2185588231        5.7609615854       -2.8924679647
 H        -3.4141010166        4.0919313061       -2.2193764732
 H        -3.6109184785        3.7023738907        0.8736448464
 H        -2.9606353646        2.2904769617        1.0581647959
 H         0.8383141853        4.2214439662       -0.5568658851
 H         0.3683700556        5.3902688995        0.8538769186
 H         0.6390502186        5.8127084640       -0.9111559071
 H        -1.4976469271        6.4033249267        0.8587333061
 H        -1.8929647248        6.9525128789       -0.8595933150
 H        -3.0173676705        5.9103211677       -0.1939681848
 H        -2.9863398751        3.4153666138        3.3374326048
 H        -2.6603661981        4.9248607916        2.6176217538
 H         0.0508903371        1.7385391337        6.7879133472
 H        -1.4018853015        2.4420860572        7.2636470556
 H         1.2884411228        3.0015226654        4.6915914401
 H         0.7610386697        4.1694189780        6.0525291863
 H         1.1324822454        4.7584521295        4.3462239621
 H        -1.3633619960        4.5894573765        6.3887326635
 H        -1.3909132503        5.7459920188        5.0709082205
 H        -2.6753080617        4.5863586357        4.9785495093
 H        -2.6594533092        0.3527371308        6.6154944647
 H        -1.0766591005       -0.3408792330        6.1825886827
 H        -5.1836338131        1.9564212525       10.1576816849
 H        -5.1432624745        0.1738328027       10.2611029330
 H        -4.3103545305        1.1418767159       11.3685059859
 H        -4.0996427431       -2.1691319419        9.4442581768
 H        -2.8537020148       -2.3381371883        8.1762054548
 H        -4.3542164890       -1.3533204017        8.0664589797
 H        -3.0029711838       -0.8305673917       11.3416107215
 H        -1.5755359683       -1.6778122686       10.6575606937
 H        -1.4915912198        0.1844195842       11.0270117885
 Na       -0.0732231675        1.6875646763       -2.5967621128
