155

 C         4.9927444081       -0.9164919289       -5.6746415120
 C         3.6018602043       -0.7540979460       -4.9760051545
 C         2.4508432816       -0.1057924611       -5.8901115478
 C         1.2779126777       -1.1735899128       -6.1821271025
 C         0.6350933327       -1.1900111288       -7.5518281894
 C         1.7362267729        1.0788086445       -5.1882913286
 C         3.0291618458        0.4142553179       -7.2069320952
 O         3.4245836198       -1.2202020401       -3.8817347695
 O         0.8367602136       -2.0302883933       -5.4111630196
 C        -0.5289906643       -2.2351396958       -7.6851213450
 C        -0.1116109391       -3.7136532027       -7.5805448370
 C        -1.2913053783       -4.6892687655       -6.9051725479
 C        -0.8045793512       -5.0038998077       -5.4607526429
 C         0.5118610407       -5.7090267528       -5.1990114784
 O         0.9844930984       -4.1446781885       -7.8342048153
 O        -1.4962213637       -4.8390319126       -4.4329388442
 C        -2.7358782465       -4.1382338423       -6.9068311358
 C        -1.2459490563       -6.0570728441       -7.6770711396
 C         0.5845674230       -6.2488388136       -3.7424680203
 C         0.7455342410       -5.0037378365       -2.7380427009
 C        -0.2314236847       -4.8253715128       -1.4388188598
 C        -0.7034003957       -3.2877162878       -1.4249954450
 C        -2.0017514925       -2.9841439266       -2.1924590128
 C        -1.4690044755       -5.7373963935       -1.3461464374
 C         0.6905207956       -5.1749792562       -0.2579271689
 O         1.5426832738       -4.0980664427       -2.9228064259
 O         0.0067505691       -2.3823082328       -1.0000660215
 C        -2.5543450801       -1.6389688063       -1.7861586512
 C        -1.3977853885       -0.6525606569       -1.8363896843
 C        -1.0475739950        0.1856121044       -0.5970969947
 C         0.6370803368        0.2481483913       -0.4239109400
 C         1.2915686192        0.6631095763        0.9295800242
 O        -0.9495192764       -0.3259079027       -2.9313414158
 O         1.3454732149       -0.0201675279       -1.3754777977
 C        -1.3807775401        1.6477329707       -0.8254480040
 C        -1.6954254511       -0.2573901111        0.7520108051
 C         2.6387093100        1.4494952484        0.7829537621
 C         2.3973922033        2.8570684582        0.3324487451
 C         3.4299699504        3.8786957224        0.9725999898
 C         3.0377884123        4.0249548954        2.5156412476
 C         4.2081886199        4.4454153027        3.4128581762
 C         4.9333105665        3.2217369583        0.9525797731
 C         3.4655387191        5.2026024529        0.3395200893
 O         1.6176280188        3.2007982026       -0.5646557117
 O         2.0085966764        3.7042591000        3.0838268870
 C         3.6979577157        5.1061652089        4.7963586836
 C         3.3742733358        4.0555487599        5.8128964280
 C         2.3301399426        4.4539029125        6.8916444515
 C         0.8960531390        4.8260307483        6.2932805568
 C         0.2318448634        3.6785025013        5.4565354942
 O         4.0029945210        2.9966094871        5.8516756203
 O         0.4142100090        5.8958403792        6.6562247110
 C         2.1536747111        3.3981980445        8.0155349181
 C         3.0361749174        5.7615849691        7.5580516112
 C        -1.0879246534        3.1143797724        6.0671828107
 C        -1.6380376087        2.0625345306        5.0996993392
 C        -2.8656641559        1.1074828964        5.5830530042
 C        -4.1732555009        1.7725822631        4.9939867069
 C        -4.5057810502        1.4171448508        3.5446983405
 C        -2.6589688083       -0.2935856573        4.9437208082
 C        -3.0164934058        0.9872333562        7.1090076892
 O        -1.2274065280        1.9381368181        3.9671929730
 O        -4.8477505318        2.5399738160        5.7117637228
 C        -5.9691700759        1.7978726727        3.3883675167
 C        -6.5063940320        1.0854491068        2.1271846929
 C        -7.8758252539        1.6255832994        1.6638217794
 C        -9.0085042099        0.5344984301        2.1565378149
 C       -10.5277673448        0.8777877681        1.8027564658
 O        -6.0644473275        0.1600938353        1.5731936689
 O        -8.6183443368       -0.4451614490        2.7591999634
 C        -8.2550687726        3.0455366033        2.1365311144
 C        -7.8741037147        1.6003028202        0.0428282285
 H         4.9048583840       -1.6764228207       -6.4869190629
 H         5.4234290393        0.0016295114       -6.0614091872
 H         5.6566264542       -1.2966945661       -4.9452820412
 H         0.2567623916       -0.1817637215       -7.8279333781
 H         1.3289548083       -1.5299918117       -8.3054881827
 H         1.8865552504        1.0985616414       -4.1091813786
 H         0.6044278989        1.0633188165       -5.3716282631
 H         2.2028967733        2.0475524652       -5.4781940239
 H         3.3574883679       -0.3821143691       -7.9326636402
 H         2.3050563446        1.0339025306       -7.6670161870
 H         3.8444498873        1.0359379926       -6.8704972021
 H        -1.1986803928       -1.9238887352       -6.8622876887
 H        -0.8160423829       -2.0885304153       -8.6703960720
 H         0.7806861476       -6.5185128223       -5.8203655135
 H         1.2882501067       -4.9029957144       -5.2401938356
 H        -3.0029376552       -3.8989526541       -7.9201056871
 H        -2.7243755608       -3.2215644952       -6.2139158850
 H        -3.4024066747       -4.9349949289       -6.5011255487
 H        -1.9801985216       -6.6927437268       -7.1901809459
 H        -1.4046844759       -5.8841039950       -8.7429348690
 H        -0.2891549765       -6.5433335375       -7.6408695522
 H         1.5801595719       -6.8257655928       -3.6362078133
 H        -0.2734059689       -6.8593700333       -3.5213090439
 H        -1.7161965002       -3.0908307022       -3.2413502361
 H        -2.8614973748       -3.7666292171       -2.1598463640
 H        -2.0955895747       -5.6417277869       -2.2833105112
 H        -2.1568312764       -5.4329812213       -0.5435245506
 H        -1.0770949353       -6.7346194948       -1.2032489827
 H         0.3807930512       -4.9404881274        0.7527499099
 H         0.8647166943       -6.2932409562       -0.3505454576
 H         1.7058802835       -4.7276174550       -0.3871046501
 H        -3.3498198036       -1.5026227234       -2.4602703098
 H        -3.0165053245       -1.6648386104       -0.8113507291
 H         0.6224277473        1.3458635395        1.4309151977
 H         1.3935438286       -0.2748874193        1.4629512308
 H        -1.3754128295        2.2057907127        0.0399773392
 H        -2.4418488509        1.6857286984       -1.0607044105
 H        -0.9019811582        2.2542849289       -1.5514801768
 H        -1.1160771877        0.0264698196        1.6919982525
 H        -2.6837736121        0.1939236330        0.9039411334
 H        -1.8952025381       -1.3354329517        0.8513889023
 H         3.2088708300        0.8918839923       -0.0330861063
 H         3.2292580553        1.3904178774        1.6839370253
 H         4.8992279182        3.5858558240        3.5913475413
 H         4.7479764024        5.2246593643        2.8393008822
 H         5.6631397580        3.8949117985        1.4615984047
 H         5.2242948986        3.2146527645       -0.0854702709
 H         5.0397538730        2.2654811056        1.4907442416
 H         3.6887692155        5.0842376593       -0.7058062035
 H         2.5083724149        5.7716836543        0.4486505845
 H         4.3343874402        5.7244583815        0.7314591634
 H         4.3798058640        5.7763663664        5.2420049052
 H         2.7666697077        5.5355535022        4.5324846655
 H         0.0186594697        4.1120203194        4.4103586094
 H         0.9731603224        2.8691311471        5.4056078369
 H         1.9395556368        3.8932897254        8.9655661902
 H         3.0946009766        2.8271825013        8.1614992730
 H         1.2136989423        2.8358081332        7.8525304117
 H         3.1556912316        6.4312575314        6.7558481270
 H         2.2309494800        6.2369326429        8.1970510406
 H         3.9390876826        5.3941198947        8.0198978659
 H        -1.8948652155        3.8375576671        6.0628209253
 H        -1.0952555486        2.8015536769        7.2023809740
 H        -3.8080193720        2.0574231333        2.9061497120
 H        -4.4950771723        0.3271721885        3.3386054410
 H        -1.9508941859       -0.8367777942        5.6207042625
 H        -2.4976417741       -0.4120983081        3.9505241360
 H        -3.5843963281       -0.8429469148        5.0584154784
 H        -3.2398944429        1.9382030372        7.5620206418
 H        -3.8510073915        0.2538192497        7.2664538850
 H        -2.0733305668        0.6657186955        7.5148676273
 H        -6.5323904321        1.5678583405        4.3270237037
 H        -5.9669266120        2.8501466226        3.2314821064
 H       -10.5621097186        0.7947960915        0.7080366293
 H       -11.1595950312        0.1159549091        2.2390855338
 H       -10.8558928842        1.8246174871        1.9991717151
 H        -8.3115288325        3.0635101452        3.1646242486
 H        -9.2793818211        3.2821757765        1.8587405121
 H        -7.4839554257        3.7443547874        1.7017070601
 H        -8.8800894126        1.6114565507       -0.4033436021
 H        -7.1940864255        2.3502491268       -0.3637222790
 H        -7.5558038599        0.5572784136       -0.0073121787
 Na        1.2724714190       -1.6981964434       -3.0333621012
