155

 C         4.6308984904       -1.4158742662       -5.6672553322
 C         3.3806734471       -0.9593579870       -5.0403868465
 C         2.3735584970       -0.0834024166       -5.9361283564
 C         1.0527014826       -0.8827045092       -6.0882789696
 C         0.6225061163       -1.3755342499       -7.4703528856
 C         2.0992175578        1.1486377990       -4.9976122051
 C         2.9549538847        0.2814168403       -7.3061084761
 O         3.2148236298       -1.1803216399       -3.8599273850
 O         0.3404214827       -1.1333458973       -5.1427434036
 C        -0.3485243505       -2.5361282360       -7.3782732852
 C         0.2081853586       -3.8844350213       -7.4497956312
 C        -0.7970123385       -5.0177263836       -7.1837773958
 C        -0.6199601016       -5.6269340661       -5.6450520749
 C         0.7829188783       -5.9936393785       -5.1706102988
 O         1.3756593490       -4.1123744213       -7.6586248731
 O        -1.4921169922       -5.6158828080       -4.8021744296
 C        -2.2835887147       -4.6622701833       -7.3427719690
 C        -0.3236393168       -6.1610075188       -8.1834536124
 C         0.8314686203       -6.0763428195       -3.6432109828
 C         0.6280040830       -4.6645768469       -3.0337166794
 C        -0.1446093268       -4.4817080204       -1.6405069701
 C        -0.7363295765       -3.0149574588       -1.5727862975
 C        -2.0131895522       -2.5842271456       -2.3781948033
 C        -1.2476901157       -5.4711948160       -1.3897487571
 C         0.9203948402       -4.7612007084       -0.5257467735
 O         1.0358804721       -3.7253745029       -3.6792570616
 O        -0.1180709306       -2.2846111903       -0.7933375707
 C        -2.6555991063       -1.3136098265       -1.7279387982
 C        -1.4713466849       -0.2640843893       -1.6133778278
 C        -1.2573835900        0.5858808666       -0.3466701808
 C         0.4137140896        0.5319699572       -0.0098225014
 C         0.8514379738        1.0225250411        1.3276547776
 O        -0.7834669622       -0.0844514720       -2.5888764144
 O         1.2120116381        0.2384260496       -0.8718720257
 C        -1.5665181426        2.0381165933       -0.5561671271
 C        -2.1060321638        0.0772127770        0.9306573407
 C         2.2770181265        1.5388739571        1.2713690987
 C         2.4328581053        3.1454739547        0.7972925960
 C         3.6725584055        3.9083776940        1.3899235221
 C         3.4278235877        4.0640213215        2.9907032817
 C         4.6311782215        4.5543126400        3.7430899408
 C         4.8714504333        3.0542448485        1.1376139921
 C         3.8179314102        5.3127449488        0.7771578389
 O         1.7549151934        3.5624429669       -0.0762385316
 O         2.2895543484        4.1026851312        3.3825642656
 C         4.2754922583        5.0386228855        5.0923827052
 C         3.3522942936        4.0593171370        5.9079311791
 C         2.0362810204        4.6969224097        6.6780114019
 C         0.7197002728        4.7269304968        5.9199406494
 C         0.0639655274        3.4455544884        5.2695179435
 O         3.6916419020        2.9357053889        5.9055988323
 O         0.1253212986        5.7533559974        5.7134196779
 C         1.8139077138        3.8098230924        7.8954381946
 C         2.3096639370        6.1171797317        7.2223978015
 C        -1.3240633510        3.0603515796        5.8099508246
 C        -1.9762994508        1.8702331634        5.1606128170
 C        -3.0697566942        0.9815279599        5.8902321148
 C        -4.3926606202        1.3817509495        5.1364282623
 C        -4.8590098894        0.4565364897        4.0207460646
 C        -2.6888670830       -0.5522630390        5.7782929217
 C        -3.3234468559        1.4253515407        7.3906576945
 O        -1.5782809488        1.4532817360        4.0555851437
 O        -5.0668807238        2.2647561544        5.5175312974
 C        -6.2245652369        0.9276450239        3.4939093217
 C        -6.2388369106        0.9459971774        1.9274132547
 C        -7.6542497438        1.2366982365        1.1889702314
 C        -8.6734943847        0.1195959599        1.3483602114
 C       -10.1411000837        0.4523596849        1.2802509843
 O        -5.3083204736        0.6748072177        1.1540536814
 O        -8.3839051974       -1.0001469166        1.7188925672
 C        -8.1810948500        2.6263722531        1.6614634789
 C        -7.4310384585        1.3690887855       -0.3757905814
 H         4.4568348564       -2.3282325335       -6.2032495494
 H         5.0309949218       -0.7140138371       -6.3493059879
 H         5.3910464337       -1.7841774481       -4.8766229953
 H         0.2764172782       -0.5137661591       -8.1347613718
 H         1.4148974371       -1.7682185589       -8.1251086918
 H         2.2852827862        2.0947221320       -5.5434700831
 H         2.6446822746        1.1225444706       -4.1070402198
 H         1.1403338081        1.2603439292       -4.6076414102
 H         3.1882957130       -0.5887475516       -7.9028333975
 H         2.3939377674        1.0454080200       -7.9481963012
 H         3.9255426678        0.6467039094       -7.1327661979
 H        -0.9393076024       -2.3879029018       -6.4193648987
 H        -1.1003584622       -2.4744928680       -8.2357614501
 H         1.1698811126       -6.9338734221       -5.5739206959
 H         1.5261908944       -5.3133989380       -5.6708536082
 H        -2.5505464314       -4.4320185375       -8.3645906842
 H        -2.5918075172       -3.8555752721       -6.7470919177
 H        -2.8876704009       -5.5102891208       -7.0155519508
 H        -0.8787809781       -7.0705596910       -8.1448000974
 H        -0.4525233233       -5.9217899890       -9.2435036989
 H         0.7032597847       -6.3749489567       -7.8846052147
 H         1.7603110793       -6.5773885410       -3.3016736937
 H         0.0890537909       -6.8275148825       -3.3023471554
 H        -1.7266145076       -2.5047229469       -3.4329359077
 H        -2.7512191963       -3.4168663657       -2.5544600368
 H        -1.6494502097       -5.7016169314       -2.3182850211
 H        -2.0183195379       -5.0184610022       -0.6972848439
 H        -1.0077099636       -6.4118454377       -1.0242004202
 H         0.7845847525       -4.5123336152        0.4951058466
 H         1.2165472575       -5.8133906005       -0.5360793238
 H         1.7929438837       -4.2518310147       -0.8590520038
 H        -3.2724517092       -0.8647237363       -2.5179993945
 H        -3.2228626281       -1.4498735302       -0.8247853747
 H         0.1532265345        1.8317478267        1.6800536975
 H         0.6465596475        0.2558271787        2.1797373826
 H        -1.3126032672        2.5647143528        0.4363648628
 H        -2.7024990340        2.2060247986       -0.5356981057
 H        -1.3102139544        2.6844249482       -1.4012095900
 H        -1.9731389288        0.7130658217        1.8598648471
 H        -3.1729529951        0.0034553429        0.6534869043
 H        -1.7067424655       -0.9005785077        1.1154707750
 H         2.8692577205        0.7519331396        0.7350166999
 H         2.7363487100        1.2257309280        2.2230090907
 H         5.3793777467        3.7310378718        3.8710523164
 H         5.2552697444        5.2855676676        3.1916534568
 H         5.7269044266        3.4658389420        1.6791723431
 H         5.1083095574        3.0767350995        0.0402410472
 H         4.7299915938        2.0311754021        1.2924838974
 H         3.9411971784        5.2662680566       -0.3718126917
 H         2.8945057158        5.8182628165        0.9823117143
 H         4.6011792857        5.8808428368        1.2537746500
 H         5.2271403596        5.0021688947        5.6888417569
 H         3.9242898432        6.0678807506        5.0075978923
 H         0.0175403620        3.6867212653        4.1549081382
 H         0.8044935797        2.6050736667        5.3847126143
 H         0.8754716330        4.1385526278        8.3427544261
 H         2.5703131344        3.8441282013        8.6476759374
 H         1.8026524527        2.7324570172        7.6480958411
 H         2.2934516522        6.8369671188        6.3829595542
 H         1.5852939234        6.2406394951        7.9199232576
 H         3.3036268480        6.0971635746        7.7649793219
 H        -2.0533759113        3.7950237962        5.8407906310
 H        -1.0789008609        2.8652666136        6.8571358428
 H        -4.1613869567        0.4513059827        3.1778730844
 H        -4.8090215593       -0.5516217042        4.3084881652
 H        -2.1057040350       -0.9331989462        6.6297212498
 H        -1.9395959006       -0.7233136628        4.9835550338
 H        -3.5737121821       -1.1738482907        5.8079876044
 H        -3.3683398769        2.5494921981        7.4527054781
 H        -4.2523330522        0.9748262036        7.7718519621
 H        -2.4643073094        0.9682678530        7.9257256274
 H        -7.0342420007        0.3264404030        3.9425416190
 H        -6.2882294129        1.9744000167        3.8292945855
 H       -10.2238497224        1.2471313883        0.5839866066
 H       -10.6306641292       -0.3923371976        0.8421943419
 H       -10.6210761894        0.6260745601        2.3202611066
 H        -8.5267638745        2.4376389246        2.6999518738
 H        -8.9312308278        2.9270276239        0.9477074349
 H        -7.4172624507        3.4074198886        1.8179279515
 H        -8.3087368549        1.6502984457       -0.9487233906
 H        -6.5949756702        1.9709933217       -0.5778329606
 H        -7.0607303420        0.3183697138       -0.5924428072
 Na        1.1043707372       -1.2784098441       -2.7648906632
