155

 C         4.0689135322       -2.0123374138       -5.8076089440
 C         3.0416841796       -1.2018332340       -4.9730192819
 C         2.2056963322       -0.0322997681       -5.6151105217
 C         0.8181678239       -0.8081487951       -6.0382905906
 C         0.4825539203       -1.1808060706       -7.4798477044
 C         1.8471789456        1.1639062555       -4.6803147790
 C         2.8462418792        0.4839386119       -6.9249891139
 O         2.8801870049       -1.4458993926       -3.7605455005
 O         0.0987661498       -1.0578566337       -5.0638543328
 C        -0.2316578953       -2.4793971298       -7.5629128036
 C         0.6341952837       -3.7853480710       -7.4926219154
 C        -0.1092067361       -5.1503527316       -7.4165083461
 C        -0.2221834982       -5.3223368450       -5.8229332092
 C         1.0313441307       -5.7948715537       -5.0978756838
 O         1.8648916392       -3.7001961837       -7.4520461245
 O        -1.1931432354       -4.9249540818       -5.2319187988
 C        -1.5295259707       -5.1363179236       -8.0805231475
 C         0.7791018167       -6.2293702854       -8.1322654639
 C         0.9597086399       -5.7619791562       -3.4976691103
 C         0.5081889041       -4.3469584152       -2.8631705150
 C        -0.3043042701       -4.4858146751       -1.5199803350
 C        -0.6269327807       -3.0053122769       -1.1484527460
 C        -1.9917508752       -2.5308975822       -1.6573539549
 C        -1.4889992852       -5.5460817456       -1.6939452767
 C         0.4958494286       -5.0796579083       -0.3151813475
 O         0.8589231862       -3.3362677419       -3.4828214053
 O         0.1612110952       -2.2829112663       -0.5017895899
 C        -2.3713460530       -1.2441274195       -0.9217634377
 C        -1.5463093048        0.0062371831       -1.3380937525
 C        -1.1195182995        1.1022957318       -0.3069225680
 C         0.5059248822        0.8442095374       -0.1070560634
 C         1.0177605355        1.0335654588        1.3782103082
 O        -1.1577586042       -0.0296132549       -2.4837914139
 O         1.2924947265        0.4321786068       -0.9502135425
 C        -1.3152483375        2.4456202487       -0.9929576016
 C        -1.8469884844        1.1166141056        1.0073942429
 C         2.4392197724        1.6240557276        1.5281917282
 C         2.5783198817        3.0007937133        0.8979284748
 C         3.7312408920        3.7389712094        1.4976685646
 C         3.3560722280        4.3099321381        2.9751556474
 C         4.4206877044        4.5240401446        4.0892630978
 C         4.9692371084        2.8157428242        1.6404667873
 C         4.0280620857        4.9963489456        0.5863193210
 O         1.8565114420        3.4283300965       -0.0285138780
 O         2.2147596922        4.7169296618        3.1635103276
 C         3.7437978845        5.1902543479        5.3694064535
 C         2.7696168922        4.2289630823        5.9891746353
 C         1.4904920201        4.6815299162        6.7645996300
 C         0.4769675090        4.3794378999        5.4744833242
 C         0.0559633368        2.9940008984        5.1003336195
 O         3.0146733907        3.0408844581        5.7768322031
 O         0.0891766134        5.3249863298        4.8171087792
 C         1.2456371778        3.7161075551        7.8652221984
 C         1.3985147113        6.1987056046        7.0362010470
 C        -1.3558965044        2.7518296765        5.7325910831
 C        -2.0814862167        1.3928117467        5.3480773841
 C        -3.3181916932        0.9296789993        6.1161440259
 C        -4.5839707864        1.1251032433        5.1444313344
 C        -4.7326478307        0.1910735905        3.9203460203
 C        -3.1594436979       -0.5425867474        6.4862375184
 C        -3.5999716156        1.8173821747        7.3573809441
 O        -1.5631049047        0.8186479167        4.3939543727
 O        -5.3417360223        2.0974736050        5.2709783940
 C        -6.0649453495        0.3244735905        3.1518946910
 C        -6.0596636720        0.9111798681        1.7679529084
 C        -7.3280937511        0.9961589957        0.9034694870
 C        -8.2059494450       -0.3700523491        0.8675257706
 C        -9.7714671105       -0.2871811625        0.6215509719
 O        -4.9806949039        1.3335243912        1.4108824988
 O        -7.6436676409       -1.4409229334        0.9951468045
 C        -8.1867860011        2.3003515026        1.5191034330
 C        -6.9486732114        1.3486198539       -0.5477192698
 H         3.4770808218       -2.6073196402       -6.5252415552
 H         4.6309955624       -1.3142090026       -6.4927718704
 H         4.8137659386       -2.5134265584       -5.3333769150
 H        -0.0931503916       -0.3356361081       -7.8561282403
 H         1.2500996521       -1.1794933303       -8.1777025274
 H         1.3514048969        0.9949316337       -3.8006496693
 H         1.1225954876        1.8241830356       -5.1695305472
 H         2.7759081257        1.8139686339       -4.6668750041
 H         3.2609867593       -0.2923175913       -7.5067973691
 H         2.1168591334        0.9698554382       -7.6393104874
 H         3.5542391907        1.2856501820       -6.8191753086
 H        -0.9544771068       -2.4989074386       -6.7361069851
 H        -1.0593052035       -2.4835258171       -8.3310121591
 H         1.4665074625       -6.7485459216       -5.4740675787
 H         1.7749511098       -5.0353267751       -5.4045141823
 H        -1.7221332069       -4.8460872918       -9.1836351698
 H        -2.2407463158       -4.5390041334       -7.5278815773
 H        -1.9357188287       -6.1718729338       -8.0672216091
 H         0.4372974414       -7.2240515473       -7.9653455853
 H         0.9161294232       -6.0692896391       -9.1822989239
 H         1.8325347090       -6.2482835934       -7.8505520026
 H         1.9411639720       -5.8000762260       -3.2736698872
 H         0.3961861263       -6.6066961658       -3.1137563255
 H        -1.7708686696       -2.1984368902       -2.7022204871
 H        -2.8600728779       -3.1625853627       -1.6576744518
 H        -2.0812911220       -5.2668986216       -2.5564885115
 H        -2.2519434330       -5.4320091491       -0.9332936335
 H        -1.0833078064       -6.5863320162       -1.6719477037
 H        -0.0071411526       -5.0195773854        0.6915241144
 H         0.9412247957       -6.0524680033       -0.4690161816
 H         1.3699411938       -4.4322877609       -0.2300425448
 H        -3.4272362484       -0.8212730009       -1.0693354935
 H        -2.2257269669       -1.2606334471        0.1451609720
 H         0.4044652292        1.7797843191        1.8101394309
 H         0.9916735069        0.1011379636        1.9490182842
 H        -0.5296360356        3.1068335359       -0.7095841014
 H        -2.2316407164        2.8772076888       -0.9591379393
 H        -1.0554796451        2.3083383618       -2.0644548433
 H        -1.4995076444        1.8952013829        1.6111516125
 H        -2.9219471933        1.3916917396        0.7793409631
 H        -1.7795398755        0.1052188390        1.4161753332
 H         3.0699022279        0.8485210441        1.1874233631
 H         2.3868156527        1.7141760929        2.6021060150
 H         4.7537409260        3.5234509850        4.2806148289
 H         5.2266710998        5.0744509112        3.6755607871
 H         5.7971434012        3.3896715436        2.0061413954
 H         5.3843889974        2.4578613630        0.6580785618
 H         4.9527391137        2.0746139886        2.4135711707
 H         4.2951433431        4.7308991654       -0.4567077169
 H         3.0535782792        5.4459405744        0.5330208353
 H         4.7976633882        5.6528020220        0.9263938033
 H         4.5925713178        5.5359408889        6.0473967791
 H         3.3738570203        6.1652963257        5.1078108021
 H         0.0049195655        2.8571138655        4.0323463084
 H         0.6276121728        2.1535188883        5.4946113050
 H         0.3063293138        3.1074122997        7.7563650989
 H         1.1191789042        4.1465052190        8.8522488447
 H         1.9144593943        2.8493814383        7.8803391696
 H         1.2677155955        6.7605233270        6.1410100127
 H         0.3896418044        6.4051120253        7.5443206154
 H         2.1496305847        6.5591434501        7.6948057470
 H        -1.8608047481        3.5922404152        5.3241079439
 H        -1.2789277463        2.8543435903        6.7164100084
 H        -3.7834307216        0.2587483553        3.2928260295
 H        -4.6038731919       -0.7792700437        4.3688107210
 H        -2.7060077204       -0.6357739978        7.4309260984
 H        -2.5593757037       -1.0969384240        5.6933926827
 H        -4.0846414169       -1.0883228375        6.4040245686
 H        -3.8783223881        2.7878408662        6.9238885325
 H        -4.4479782234        1.3780453284        7.8012858470
 H        -2.6470252950        1.8583105358        7.9054319653
 H        -6.5938381647       -0.6369908739        3.1295695038
 H        -6.7544462179        0.8016601837        3.8794683946
 H        -9.8628688679        0.4708881810       -0.1498869747
 H       -10.1782221831       -1.2827157939        0.3219482817
 H       -10.2381357994        0.1771494648        1.4808252645
 H        -8.9930832215        1.8306842744        2.1921791369
 H        -8.8267875840        2.8199155551        0.7728673845
 H        -7.5627832420        3.0491741475        1.8967197972
 H        -7.8648885869        1.5494904875       -1.1195188145
 H        -6.2765088587        2.2196798970       -0.4998831242
 H        -6.4991038809        0.4940193031       -1.0803538019
 Na        1.0145509063       -0.9524857559       -2.6960909147
