155

 C         4.2266819350       -1.7219447747       -5.6341470156
 C         2.9997961792       -1.0066258991       -4.9734349764
 C         2.1491017470        0.0182423502       -5.7494790111
 C         0.8701801544       -0.8076461626       -5.9468503016
 C         0.2627418949       -0.8318041894       -7.3740575717
 C         1.6910212178        1.1035957628       -4.7100767041
 C         2.8444446993        0.5376819026       -6.9998005105
 O         2.7236948364       -1.2943824959       -3.8373825203
 O         0.3865471210       -1.3870496849       -4.9956148506
 C        -0.3573022919       -2.2788749189       -7.6903248823
 C         0.8131050852       -3.2882351317       -7.4836767559
 C         0.4524553690       -4.8330381854       -7.3189350464
 C         0.1202893207       -5.0558918452       -5.6761129772
 C         1.2849776157       -5.6702005851       -4.7933942746
 O         1.9794422494       -2.9509735451       -7.4836518036
 O        -0.9772600931       -4.9088245297       -5.2817765209
 C        -0.8863225106       -5.0707506478       -8.0834970675
 C         1.7480164535       -5.6431401994       -7.8282778416
 C         0.9101311491       -5.8040008893       -3.2935230838
 C         0.4931535802       -4.5172690628       -2.5299370013
 C        -0.5852363325       -4.5185722906       -1.4452643126
 C        -0.8417123975       -3.0485067589       -0.8771457043
 C        -2.2878437297       -2.4353019272       -0.6988596304
 C        -1.8758210858       -5.1415474831       -1.9767214749
 C         0.0332424332       -5.2442991158       -0.1885341536
 O         1.1537869922       -3.5194289723       -2.8042360897
 O         0.1040842398       -2.2798510803       -0.8075460856
 C        -2.1129537829       -0.9756655599       -0.1011124577
 C        -1.5152093442        0.0349454202       -1.0788593253
 C        -0.6884841766        1.2071584502       -0.4590202149
 C         0.7841625728        0.8297921061       -0.0823505075
 C         1.3578342140        0.8946790533        1.2964811227
 O        -1.4769677796       -0.1612180953       -2.2786095391
 O         1.4552060582        0.2609633220       -0.9083510693
 C        -0.6821002428        2.3708273498       -1.4785504982
 C        -1.4551453568        1.7611218621        0.7871509595
 C         2.8535782348        1.3289234176        1.3390907877
 C         3.0324247367        2.7586846745        0.7209935792
 C         4.1515200267        3.6425414694        1.3227963109
 C         3.4285468282        4.1123409764        2.7582692041
 C         4.2624306448        4.7870253440        3.9258741755
 C         5.4562581620        2.9335533885        1.6136942276
 C         4.5245687454        4.9083905242        0.5103306300
 O         2.1761867484        3.2003926506       -0.0258391594
 O         2.2200769061        3.9331594924        2.8612085961
 C         3.2151452572        5.3891001284        4.8636241294
 C         2.4452649951        4.3043041481        5.7362302148
 C         1.0947255390        4.6564227169        6.4659196843
 C        -0.1645617759        4.5343554668        5.4149238977
 C        -0.5729428078        3.0583705559        5.0011176599
 O         2.8136104801        3.1869040976        5.6216884842
 O        -0.9247578931        5.4739595395        5.1904745549
 C         1.0257984268        3.6653002938        7.6868303814
 C         1.0620700444        6.0687666884        7.0287626983
 C        -1.9959109270        2.7297263650        5.6232144851
 C        -2.2903044105        1.2561680350        5.5432056630
 C        -3.7274823965        0.8325437365        6.1031606997
 C        -4.8900981038        0.9506566195        5.0649823299
 C        -4.6421118433        0.2620904849        3.7085789671
 C        -3.5625876519       -0.6573589893        6.5424647541
 C        -4.0936813728        1.6934441399        7.4032618790
 O        -1.5069116135        0.3839041236        5.0980226195
 O        -5.8549337722        1.6584882537        5.2088267638
 C        -5.9325186700        0.1472417014        2.9697984266
 C        -6.0086220572        0.9175460831        1.6708049261
 C        -7.4710430734        0.9687042232        0.8330355637
 C        -7.8034917341       -0.5148203088        0.5786988673
 C        -9.1481766272       -0.8151193864       -0.0318084001
 O        -4.9747461952        1.2188715204        1.0004328035
 O        -7.0818034792       -1.4461506930        0.8409670027
 C        -8.5385881481        1.6003548627        1.7112547918
 C        -7.2809146385        1.6655824306       -0.4822160640
 H         4.1006034083       -1.8551821227       -6.7158335749
 H         5.1338213815       -1.1500684377       -5.5370601797
 H         4.4418007792       -2.7113904928       -5.1960242119
 H        -0.5736712397       -0.1388248652       -7.4432016309
 H         1.0633403061       -0.6805817274       -8.1749319634
 H         0.8876371241        0.6167254545       -4.1663009539
 H         1.3882748805        1.9775390436       -5.1871552597
 H         2.4844845365        1.2222614821       -3.9774389724
 H         3.1347106706       -0.1951855509       -7.7583167244
 H         2.2107525455        1.3421846934       -7.4498465555
 H         3.7792111275        0.9429434342       -6.7299883450
 H        -1.3193972819       -2.5617878545       -7.0996195805
 H        -0.7285167025       -2.2818361663       -8.7291001126
 H         1.5601191297       -6.6472679168       -5.1875713422
 H         2.1449569309       -4.9682460999       -4.8296048931
 H        -0.7488981288       -4.8315015810       -9.1580625725
 H        -1.7024830398       -4.4965397868       -7.7353553277
 H        -1.3971884173       -6.0619829107       -8.1464701136
 H         1.6689974486       -6.7107506158       -7.9475792808
 H         2.0090452669       -5.3651700320       -8.8654343037
 H         2.6179698922       -5.4989373404       -7.1982135473
 H         1.9205192757       -6.1219901292       -2.8250008566
 H         0.2056565059       -6.6079053483       -3.1408817523
 H        -2.6372323557       -2.2719185298       -1.7057546453
 H        -3.0023436524       -3.0536974916       -0.0418473720
 H        -2.0445933113       -4.6840430895       -2.9402183810
 H        -2.7853007081       -5.0514545324       -1.2622262725
 H        -1.7325793141       -6.1641314830       -2.2231295919
 H        -0.4698388742       -4.9595856700        0.7363242207
 H        -0.2235769597       -6.3697905511       -0.2716997055
 H         1.1273258597       -5.1751406161       -0.0512852874
 H        -3.0012410913       -0.3802072034        0.0984128713
 H        -1.5385932878       -0.8988525547        0.8664546380
 H         0.7526161838        1.6001823989        1.9527938848
 H         1.2290097961       -0.1811870449        1.6781771007
 H        -0.4072985945        3.2920249170       -0.9836501008
 H        -1.6593395943        2.6807574775       -1.8059233298
 H        -0.0076032387        2.1854630672       -2.3355183123
 H        -0.7235496172        2.4689872846        1.2978680005
 H        -2.4388404050        2.2372449379        0.7377364521
 H        -1.4201177586        0.9486067360        1.4865600528
 H         3.3193493469        0.6443029474        0.5533030608
 H         3.2360294965        1.2111351730        2.3376055877
 H         4.5297176225        3.8869239527        4.4494813864
 H         5.0273368071        5.4273296575        3.5291098499
 H         5.9546482200        3.2343383479        2.5883284759
 H         6.2018525742        3.1959050162        0.8425727758
 H         5.4984623637        1.8330874212        1.5531409540
 H         4.8097421411        4.6117287187       -0.5237503451
 H         3.7633923248        5.6021166198        0.6088265452
 H         5.2836811950        5.4366870738        1.0194538961
 H         3.8410522311        6.0937150359        5.4462727271
 H         2.5053087897        6.0540211543        4.2730019012
 H        -0.7364638003        2.9596779262        3.9032987351
 H         0.1213403828        2.3899536028        5.4394359085
 H         0.9850843378        4.2433988456        8.5894510259
 H         1.7993672709        2.8956243777        7.6135009960
 H         0.1217477534        3.0247013240        7.7586781997
 H         1.1702252423        6.8599313760        6.3003179745
 H         0.2714368850        6.2310972826        7.6846032210
 H         1.9949057226        6.2290556447        7.5919354851
 H        -2.7393009826        3.2283219583        4.9902495216
 H        -2.1036985838        3.2508017179        6.5859697327
 H        -4.0797044729        1.0348640960        3.3029159712
 H        -4.0494436686       -0.6656355028        3.7057346506
 H        -3.2526904915       -0.7343957110        7.5845479330
 H        -2.7352011444       -1.0139459219        5.9333499095
 H        -4.4051787920       -1.2631069544        6.3094130639
 H        -4.1233129554        2.6901210262        6.9716736715
 H        -4.9628085720        1.1892871156        7.8237561651
 H        -3.1940815815        1.7133434906        7.9957387029
 H        -6.0805316723       -0.9157169233        2.6552939160
 H        -6.8333607358        0.1989585860        3.5740834196
 H        -9.2747164009       -0.1068994505       -0.8320579993
 H        -9.0207458845       -1.8535206700       -0.3123782174
 H        -9.9936717610       -0.6540884226        0.7802468290
 H        -8.5271077565        1.2203787822        2.6890431820
 H        -9.4460084437        1.7093996731        1.1500020147
 H        -8.2252144426        2.6741875702        1.9590315763
 H        -8.0660010317        2.3503357901       -0.8036940902
 H        -6.4007691594        2.2313257853       -0.3490684552
 H        -6.9053124144        0.9827862721       -1.3154120911
 Na        0.8485021664       -0.8533788612       -2.5958370777
