155

 C         4.6393143514       -0.5051143941       -5.6049960674
 C         3.2056239192       -0.3185218837       -5.1204970119
 C         2.1948048770        0.5463371164       -6.0082507888
 C         0.9169931528       -0.2809374577       -5.9896290958
 C         0.3404190638       -0.8097061416       -7.2697568168
 C         2.0626431966        1.8377068035       -5.1371448290
 C         2.6614173938        0.8057707422       -7.4813027857
 O         2.9094602948       -0.8034538319       -4.0436492386
 O         0.4668757815       -0.6209921695       -4.8846182151
 C        -0.0963001759       -2.2334864193       -7.1245882936
 C         1.1402494487       -3.1412457459       -6.9052769953
 C         0.9825775665       -4.7310942305       -6.8669855292
 C         0.2982651616       -5.1863182825       -5.5016672934
 C         1.1744078182       -5.6986746646       -4.4120205747
 O         2.2639072482       -2.6320367799       -6.7860383848
 O        -0.9147498775       -4.9682400145       -5.3585723589
 C         0.0589771254       -5.1308490903       -8.0215283379
 C         2.4321505033       -5.3439811921       -7.1176671994
 C         0.4530418947       -5.9348601802       -3.0746645444
 C        -0.0606634654       -4.5008546377       -2.5204438006
 C        -1.2464987812       -4.4860184751       -1.5133415306
 C        -0.9185696382       -3.2276614875       -0.5422461229
 C        -2.1488940557       -2.3961064958       -0.0497547798
 C        -2.3634134454       -4.1513331970       -2.5062267366
 C        -1.3506904592       -5.6861154435       -0.5529142682
 O         0.5356592516       -3.5687659248       -2.9529490694
 O         0.1669621072       -2.8178705939       -0.2521238322
 C        -1.9074945112       -0.9654526023        0.5140794534
 C        -1.3003070338       -0.1288982013       -0.6073661098
 C        -0.4102936133        1.2185453209       -0.4547967294
 C         0.9984991164        0.5808723743       -0.0829581138
 C         1.5972167592        1.0302402567        1.2826664507
 O        -1.3767031130       -0.5496851725       -1.7659828672
 O         1.6838636684       -0.0208758911       -0.9189856744
 C        -0.2150795667        1.8873302606       -1.7849889707
 C        -1.1208493502        1.9982661182        0.6363139135
 C         3.1305158315        1.1498061663        1.2955453856
 C         3.7500757961        2.3121810040        0.5155856967
 C         4.0174194304        3.6182679860        1.3702580715
 C         2.9231951172        4.0603248413        2.4608526338
 C         3.4340287906        4.8272349487        3.6988732217
 C         5.3736965262        3.2495606464        1.9764294972
 C         4.2909475945        4.9318747558        0.5090450353
 O         3.9207402504        2.2960315367       -0.6862644850
 O         1.7323636554        3.9376418809        2.2539342395
 C         2.4166848448        5.5524365191        4.5869019897
 C         1.9501965761        4.5086423033        5.6852961329
 C         0.7543626858        4.8080963752        6.5774307272
 C        -0.5620862581        4.6103659465        5.6457033191
 C        -1.0767841614        3.2048734910        5.3600311499
 O         2.4497101962        3.3989004207        5.7015695794
 O        -1.1092145670        5.5326455405        5.1039910734
 C         0.6576455389        3.8916925261        7.8254735149
 C         0.8412890647        6.2362777042        7.0872269742
 C        -2.1767435025        2.6956589688        6.3301792792
 C        -2.6514629160        1.2561104156        5.6998693347
 C        -3.9288182108        0.6183330539        6.2345719904
 C        -5.0504828502        0.9506782831        5.0674727749
 C        -4.6081720903        0.4595650481        3.5908096492
 C        -3.7385409837       -0.8870061439        6.2867711856
 C        -4.4943236138        1.1990456661        7.6308675810
 O        -1.8397612451        0.6878841963        5.0040877920
 O        -6.1514696531        1.3756169313        5.3692784051
 C        -5.8166640185       -0.0665090599        2.8806825334
 C        -5.8876758177        0.3795555362        1.4058410882
 C        -7.2093117680        0.5027273600        0.5768242751
 C        -7.3195453611       -0.8742318640       -0.1764923480
 C        -8.4647488912       -1.0994714747       -1.1438648799
 O        -4.8680036600        0.7246288724        0.9269453299
 O        -6.4808526120       -1.7261064222        0.0744772135
 C        -8.4528125188        0.6678524505        1.6151770847
 C        -7.1686614053        1.7122922831       -0.3222056022
 H         4.9941793214       -1.5336978144       -5.3809319987
 H         4.9197663131       -0.2380552911       -6.6602346690
 H         5.2259136093        0.0349273060       -4.9343568579
 H        -0.6097078092       -0.2444989897       -7.3686138739
 H         0.9232555355       -0.7077335208       -8.1256065022
 H         1.4321171609        1.5413764112       -4.3151846995
 H         1.6645071329        2.6953326120       -5.7546769818
 H         3.1368696089        1.9934736107       -4.7953802778
 H         2.7919231433       -0.1579194447       -7.9485350754
 H         1.9277239874        1.4808677349       -8.0694108805
 H         3.5560592515        1.3787142743       -7.4923063907
 H        -0.6913536395       -2.3284977188       -6.1682713781
 H        -0.6444011226       -2.4194551363       -8.0135402105
 H         1.6156440961       -6.6205383940       -4.7935404019
 H         1.9461914735       -4.9218021734       -4.2637170055
 H         0.1090684504       -4.4841860690       -8.9350195407
 H        -0.9509962333       -4.9981467428       -7.7332124386
 H         0.2655843280       -6.1382565953       -8.3426414145
 H         2.2789176985       -6.3973230830       -7.1794178095
 H         2.9940772178       -4.9218462912       -7.9649941830
 H         3.0951293848       -5.1802069421       -6.2547297865
 H         1.0314042413       -6.4376213643       -2.4163162785
 H        -0.3406764716       -6.6607485229       -3.1839342416
 H        -2.5641010739       -2.2047169099       -1.0125239907
 H        -2.8740223956       -2.9354347606        0.5838965444
 H        -2.1221237721       -3.3149509583       -3.1657225036
 H        -3.2236644988       -3.8663690800       -1.8854456681
 H        -2.5814639754       -5.0576021805       -3.0412111540
 H        -1.4849754997       -5.3738615265        0.4808914087
 H        -2.1371615682       -6.3943795366       -0.8344829082
 H        -0.4354745061       -6.2147711844       -0.6561635877
 H        -2.8968499005       -0.5929106756        0.7756347917
 H        -1.3690132115       -0.9941420181        1.4771488045
 H         1.0709252100        1.8991038306        1.4649813607
 H         1.2741131170        0.4443073983        2.1050327201
 H         0.3502074744        2.7983975623       -1.5813847421
 H        -1.1055533914        2.0149202058       -2.3113560781
 H         0.4628289356        1.3940710501       -2.5156225180
 H        -0.6979368413        2.9612387535        0.8125805345
 H        -2.2511959333        2.0816640612        0.4663480467
 H        -1.0662728770        1.4152166724        1.5336572066
 H         3.6070907816        0.2422196680        0.9038226583
 H         3.5923581886        1.1138388919        2.2264376635
 H         3.9360681299        4.0465795948        4.2510910042
 H         4.1752992748        5.3985776695        3.1985386699
 H         5.7660701436        3.9308702954        2.7058590231
 H         6.0366366942        3.3291419367        1.0497929873
 H         5.4285866165        2.2679878766        2.3759404056
 H         5.0879748740        4.7861646628       -0.2962350974
 H         3.3805791045        5.3169400892        0.0301501255
 H         4.7936972093        5.6007425141        1.1986509354
 H         2.8614838032        6.5394044077        4.8548741649
 H         1.5774184096        5.6665609693        3.8691739859
 H        -1.4405321459        3.0208505458        4.3081452386
 H        -0.3120100951        2.4688048774        5.3860740452
 H         1.2265070216        4.2479705655        8.6797711099
 H         1.0697488836        2.9391163145        7.6039774303
 H        -0.4229813732        3.8021728753        8.0458734931
 H         0.9892891404        6.9349579135        6.2978354548
 H         0.0003066909        6.7441207374        7.6883068082
 H         1.6700403553        6.3377562742        7.7539438781
 H        -2.9299229970        3.4004254381        6.5565846580
 H        -1.7580085635        2.4515604066        7.2189057876
 H        -4.1779214480        1.2913709430        2.9563103264
 H        -3.8052551550       -0.3752687630        3.5336469179
 H        -2.9186534017       -1.2604265064        6.8817403975
 H        -3.6486836601       -1.3175506884        5.2115850108
 H        -4.6725797827       -1.2772149333        6.7046779046
 H        -4.5470078553        2.2570530050        7.4375609662
 H        -5.4996161359        0.9541268366        7.7289619100
 H        -3.8931164916        0.7604573391        8.4132165062
 H        -5.8041765978       -1.1790029981        2.8877849614
 H        -6.7193324166        0.2730895727        3.4209039753
 H        -7.9212364164       -0.8851952180       -2.0389281267
 H        -8.7855217197       -2.1566944036       -1.1560770063
 H        -9.2854340376       -0.4881066472       -0.9564986828
 H        -8.7752668551       -0.3061553506        2.0712132388
 H        -9.3904113109        0.9345035777        1.1412200217
 H        -8.3432412226        1.4795694302        2.2971599734
 H        -7.9261221162        1.7953356700       -1.0866579603
 H        -7.3203451056        2.5402362104        0.3301125723
 H        -6.2484931078        1.7407033306       -0.9376524175
 Na        0.8021039303       -1.0776451024       -2.7749800150
