155

 C         4.8535618840       -0.2629356016       -5.5585652113
 C         3.3574854923       -0.2871884175       -5.1979387818
 C         2.2520117729        0.5993594876       -6.0617797978
 C         0.9103186167       -0.2229748722       -6.0764145792
 C         0.2922959672       -0.7737268399       -7.3529467405
 C         2.0172866756        1.9075370738       -5.2382590752
 C         2.8095917117        1.0573596554       -7.4403860609
 O         2.9281802983       -0.8324923508       -4.1772184855
 O         0.2155459813       -0.3280070072       -5.0624165408
 C        -0.0890287454       -2.3046710648       -6.9663790172
 C         1.2111438036       -3.1308834260       -6.7791572314
 C         1.1162419673       -4.7197768896       -6.7524411830
 C         0.3628893943       -5.1352804841       -5.5008620154
 C         1.1686721929       -5.7446668538       -4.3139430541
 O         2.2489103010       -2.5515260963       -6.6952774610
 O        -0.8291053931       -5.1865749760       -5.3542022792
 C         0.2524399731       -5.0701575883       -7.9436221979
 C         2.5746599348       -5.2932843282       -6.8077902057
 C         0.3072005792       -5.8424835213       -3.0420685193
 C        -0.0929011250       -4.5023167868       -2.5079042523
 C        -1.3366129261       -4.3248621643       -1.5631551896
 C        -1.1447736989       -3.1580370979       -0.5138286322
 C        -2.2403681944       -2.4858157782        0.2184878357
 C        -2.5978213263       -4.1435855148       -2.5916418777
 C        -1.6942424323       -5.5812082047       -0.7778733139
 O         0.5084178227       -3.4704014220       -2.9116742855
 O         0.0020498783       -2.7569346147       -0.3478067146
 C        -1.6818545744       -1.0143448028        0.4495692637
 C        -1.1933042854       -0.2391321338       -0.8135602846
 C        -0.4530941853        1.0540178911       -0.4508152720
 C         1.0856285215        0.5904715305        0.0258796169
 C         1.6907981369        1.1170816522        1.3785045226
 O        -1.3644441967       -0.7447681456       -1.8958621871
 O         1.7783444695       -0.0452131392       -0.7519965999
 C        -0.2365012235        2.0756136447       -1.6593199863
 C        -1.1081380624        1.8918694410        0.6732611978
 C         3.1867726250        1.0814600079        1.3817252583
 C         3.9190029253        2.2889611412        0.6396707447
 C         4.1540754617        3.6383693207        1.4007060697
 C         3.0228159192        4.1773093361        2.3281000713
 C         3.3943174731        4.9117355439        3.7086629324
 C         5.4773982988        3.3301321224        2.0795022851
 C         4.1252360096        4.7904482747        0.3002193988
 O         4.1009904547        2.2830145576       -0.5491032075
 O         1.8686583550        4.2415303511        1.9227753335
 C         2.0450983406        5.2997382399        4.4351891897
 C         1.8475069744        4.5123923664        5.7244295339
 C         0.6448574259        4.8357894354        6.6343164855
 C        -0.6471846632        4.6927267531        5.7642829425
 C        -1.0411289837        3.2363319099        5.5279973609
 O         2.3809865843        3.4588384089        5.9514758376
 O        -1.0827803519        5.6763154769        5.1630009517
 C         0.7723787470        3.9844476840        7.9361553886
 C         0.6039956263        6.3481527476        7.0366476811
 C        -2.2936911162        2.6786091261        6.1955289099
 C        -2.7239591249        1.2639774913        5.6613625040
 C        -3.9424452945        0.5111784614        6.2763311152
 C        -5.0666772993        0.7422270125        5.0891227335
 C        -4.6162228915        0.4064889067        3.6348915464
 C        -3.7678898847       -1.0832556151        6.4303175268
 C        -4.5109198328        1.1104529567        7.6171548905
 O        -2.0215483801        0.6291880847        4.8528669232
 O        -6.0883028581        1.3208482660        5.4131167406
 C        -5.9331872328        0.0755708207        2.8625639769
 C        -5.8525751993        0.3631802816        1.3826157886
 C        -7.1984418800        0.3553596024        0.5594849819
 C        -7.1575627940       -0.9635867422       -0.2388042550
 C        -8.1420157136       -1.0193085337       -1.4070067517
 O        -4.7102526539        0.6432086661        0.8868791334
 O        -6.3535762888       -1.8532661332       -0.0818599212
 C        -8.4818941150        0.3358724300        1.3628966496
 C        -7.0857537820        1.5567208981       -0.4334071629
 H         5.3598758127       -1.0976601970       -5.0948190068
 H         4.9248537520       -0.3325297259       -6.6056451075
 H         5.4189587375        0.6255995339       -5.1559739782
 H        -0.6344033779       -0.1908619874       -7.6469564822
 H         1.0170991638       -0.7060492839       -8.2861622009
 H         1.8185626183        1.5543166819       -4.2465995049
 H         1.1531863513        2.3832994178       -5.5743850023
 H         2.8540042443        2.5243121675       -5.4321892427
 H         3.2799910658        0.2783357680       -8.0408392595
 H         2.0632874055        1.5326731427       -7.9731230731
 H         3.5163794777        1.8772881421       -7.2240515925
 H        -0.5836627510       -2.3416835306       -5.9993308716
 H        -0.7189127668       -2.6855331293       -7.8250484380
 H         1.5309336812       -6.7615969567       -4.5601146382
 H         2.0241622881       -5.1068404282       -4.1219520769
 H         0.4882672867       -4.6614348602       -8.9222682228
 H        -0.7543159573       -4.6574875403       -7.6984777274
 H         0.2022947227       -6.1899746969       -8.0750472679
 H         2.5199733367       -6.3090704364       -6.4287439413
 H         2.9462656859       -5.1985650020       -7.8087749160
 H         3.1942547997       -4.7074514824       -6.1604925697
 H         0.7726598562       -6.5330888428       -2.1680599010
 H        -0.6193620330       -6.4472640209       -3.1867441095
 H        -3.1806983095       -2.4372390515       -0.4084201332
 H        -2.3780750950       -3.1685125097        1.0742417734
 H        -2.4527370410       -3.1711887768       -3.0499332702
 H        -3.6313790710       -4.1699671328       -2.1688456626
 H        -2.4365687452       -4.9729169690       -3.2967572598
 H        -2.5827628213       -5.3376203252       -0.2528024807
 H        -1.7289639233       -6.4309906627       -1.4495986382
 H        -0.9139318783       -5.8319318854       -0.0524821421
 H        -2.5614318999       -0.4495775192        0.8444643514
 H        -0.9748384498       -0.9921120744        1.2864573006
 H         1.1595905655        2.0616185976        1.7746750157
 H         1.3569306185        0.4018861870        2.1978296936
 H         0.2680288165        2.9204486004       -1.2722379708
 H        -1.2035689771        2.1948393366       -2.1265072299
 H         0.3213310829        1.6903574121       -2.4916120503
 H        -0.3938927959        2.7315659251        0.9387356135
 H        -1.9171304282        2.4566463619        0.2944192139
 H        -1.4480616900        1.3281216647        1.5635949210
 H         3.6092190919        0.1283077620        1.1171163142
 H         3.5984640773        1.0156522689        2.4282115050
 H         3.9762236353        4.1762028035        4.2828543071
 H         4.1117940689        5.7176248555        3.4408338435
 H         5.9221650709        4.2375369730        2.5197273256
 H         6.1764436217        2.9176316295        1.4332256642
 H         5.1905726311        2.7587965621        2.9995222051
 H         4.7996545521        4.5420112886       -0.4854839933
 H         3.1375443339        4.7702136113       -0.0972789564
 H         4.5159132707        5.7341357651        0.6635506752
 H         2.2084184887        6.3584292262        4.6372505033
 H         1.1507543859        5.1682058165        3.7783114254
 H        -1.1290945934        2.9745368403        4.5071519217
 H        -0.2822194936        2.4900546078        5.8432439357
 H         1.7806428906        4.1617955456        8.3360688620
 H         0.7827055603        2.8811551457        7.6711059379
 H         0.0424583420        4.2993601598        8.6792977835
 H         0.6526583150        7.0707127550        6.2125851761
 H        -0.3041277813        6.5187654633        7.4496452512
 H         1.2127457974        6.7140939235        7.8682082829
 H        -3.1991059921        3.3334284048        6.2671702297
 H        -2.1196538014        2.4033732226        7.3275691935
 H        -4.1787629660        1.1860511901        3.0509476488
 H        -3.8608461453       -0.3093588947        3.6523464755
 H        -2.6871892515       -1.2847216992        6.6205939364
 H        -3.9468333801       -1.5260390574        5.4935306967
 H        -4.4086219131       -1.6327013036        7.1398419584
 H        -4.7464045752        2.1778093259        7.5026377522
 H        -5.5162315452        0.6031955998        7.7278236709
 H        -3.8438043913        0.8142300846        8.4151801931
 H        -6.4278802774       -0.9096777191        2.9320585669
 H        -6.6004929578        0.8966795778        3.2501431910
 H        -7.6166024982       -0.8379886126       -2.3593481484
 H        -8.5563700685       -2.0059636089       -1.3682608493
 H        -9.0155566350       -0.2938382928       -1.1487113677
 H        -8.4995214237       -0.4681411869        2.0482067564
 H        -9.4870235578        0.2888726392        0.8932760733
 H        -8.5949043923        1.3665184276        1.8112525846
 H        -8.0149625033        1.8226636129       -0.9436472737
 H        -6.7971069442        2.4868444200        0.0639741268
 H        -6.4939142207        1.3161499606       -1.3129166481
 Na        0.6663464420       -1.3092137381       -2.7182693024
