155

 C         4.4908652585       -0.4301946374       -5.1995011054
 C         3.1717839393       -0.0580560053       -4.5874816733
 C         2.0696518711        0.6207647542       -5.4548951136
 C         0.8347802786       -0.3425428933       -5.5090134611
 C         0.2449923080       -0.9275525952       -6.8370521531
 C         1.5410471537        1.8195981994       -4.5944308119
 C         2.6494246522        1.0950789530       -6.7836618765
 O         2.8229777933       -0.3618201988       -3.4363951202
 O         0.1575869108       -0.6464414529       -4.5154685192
 C         0.2679156534       -2.4865760787       -6.9604004972
 C         1.6490939525       -3.0865634594       -6.6863323345
 C         1.7700663803       -4.6729857645       -6.5909690494
 C         0.7556161677       -5.2913623375       -5.6018030217
 C         1.1459056241       -5.6666813587       -4.1827113914
 O         2.5882602389       -2.3976677456       -6.3776193059
 O        -0.3910653198       -5.3527978920       -5.9562668663
 C         1.4934044051       -5.3424036864       -7.9756825689
 C         3.3220041588       -5.0494928786       -6.3309726011
 C        -0.1428225294       -5.5917235808       -3.2229561118
 C        -0.2641034033       -4.2145550604       -2.5506409153
 C        -1.6448752322       -3.8220719375       -1.9811057968
 C        -1.2702605424       -2.9722517995       -0.6694466976
 C        -2.2584883374       -2.1720872415        0.2589177216
 C        -2.2586837684       -2.9310163552       -3.1030003018
 C        -2.6187103609       -4.9985159004       -1.7515016872
 O         0.5867319891       -3.3874746691       -2.8058030009
 O        -0.0844487706       -2.9253556301       -0.2053300026
 C        -1.6937642938       -0.8289106351        0.6924479377
 C        -1.3066322648        0.0742156517       -0.4199209591
 C        -0.5570833737        1.4348203614       -0.0585400996
 C         0.9717521902        0.9783393053        0.2319794278
 C         1.6702598589        1.3700823428        1.4768916281
 O        -1.5063243477       -0.2080837113       -1.6072389004
 O         1.4478658419        0.2807757376       -0.5892386982
 C        -0.6903379535        2.4255545390       -1.3146593855
 C        -1.1424072528        2.1416506775        1.1782749800
 C         3.2272084687        1.1052529818        1.3773309622
 C         3.8887993679        2.1707869584        0.5102382202
 C         4.2663474490        3.5809266695        1.1401137972
 C         2.9425100844        4.0947736339        1.9256820204
 C         2.9101748775        4.0346833488        3.4798454836
 C         5.4949389886        3.4621974048        2.1407870775
 C         4.6064606542        4.6182499461        0.0704116395
 O         3.9106912936        2.0407083052       -0.7085088113
 O         2.0263790602        4.6173959076        1.3253849408
 C         1.5514585800        4.4549811167        4.0717260234
 C         1.5349037859        4.4692434611        5.6036949566
 C         0.2717840088        5.1565478092        6.3583506836
 C        -1.1535366077        4.4391118812        5.9300043646
 C        -1.2171241673        2.9309636147        5.6879793279
 O         2.4761989429        4.0875980527        6.2849063288
 O        -2.1015522861        5.0924903631        6.3167562943
 C         0.3832368254        5.0410145334        7.9498089643
 C         0.2252175054        6.5923859170        6.0455816684
 C        -2.5832578124        2.3965603380        6.2026710101
 C        -2.8712652995        1.1232538894        5.4619564472
 C        -4.0030640035        0.1587704040        6.0329462967
 C        -5.1660780643        0.3336326402        4.9628359012
 C        -5.1589825462       -0.5087316746        3.7612301750
 C        -3.5692255128       -1.2894296469        6.1158296869
 C        -4.6330898573        0.6353469901        7.3798686429
 O        -2.3736355862        0.9060828999        4.3511148185
 O        -6.0028735706        1.2163365510        5.1157097827
 C        -6.3674553170       -0.2243022025        2.7548961134
 C        -5.8522202253        0.2634745383        1.3488514536
 C        -6.7115918980       -0.0798877806       -0.0102162929
 C        -6.0335645185       -1.3270680314       -0.7668022595
 C        -6.2112362978       -1.3856036346       -2.3080727391
 O        -4.7055914890        0.7292187711        1.2283020426
 O        -5.3643919808       -2.1187142252       -0.1255646360
 C        -8.0986781129       -0.5319161135        0.3156569502
 C        -6.7536792879        1.2568206825       -0.7925654052
 H         4.4714179691       -1.4831458460       -5.3829687209
 H         4.7970017737        0.1257237119       -6.0387505514
 H         5.2757967439       -0.2077983658       -4.3980315402
 H        -0.8054147376       -0.6587126813       -7.1083144813
 H         0.7973530104       -0.4227022864       -7.6658784320
 H         1.2852741569        1.4328451405       -3.6090376842
 H         0.8029584281        2.2923535617       -5.1646323752
 H         2.3617264474        2.4048649134       -4.3802290250
 H         2.9207223907        0.1918127638       -7.3338355350
 H         1.9968194854        1.6292069359       -7.3708863338
 H         3.5045455584        1.7787872097       -6.5931945025
 H        -0.3740797683       -2.9076520107       -6.1688807411
 H        -0.1397576727       -2.8385076442       -7.9318961875
 H         1.5614987817       -6.6732165853       -4.2072132572
 H         2.0086493632       -5.0319200847       -3.8500327952
 H         2.1105000004       -4.8444532986       -8.7209549430
 H         0.3688798882       -5.3276179481       -8.2289119912
 H         1.8340826003       -6.3725529729       -7.8764165514
 H         3.4866808478       -6.0403208037       -6.7151464292
 H         3.8324410549       -4.3541764302       -6.9468762349
 H         3.5934762777       -4.8949187213       -5.3190806377
 H        -0.0811629353       -6.4467850354       -2.5426753673
 H        -1.0022498064       -5.6017116213       -3.9357132015
 H        -3.2413423064       -1.9988234093       -0.2796386294
 H        -2.5377191248       -2.9058682476        1.0322407689
 H        -1.4725526664       -2.2387239387       -3.3187143151
 H        -3.1952211466       -2.5524804113       -2.8335897730
 H        -2.2149011878       -3.4989994410       -4.0652806178
 H        -3.1498377179       -5.3003923290       -2.6416493123
 H        -1.9820509421       -5.8123520629       -1.6179843781
 H        -3.2529667199       -4.9247835866       -0.8852100271
 H        -2.5162909388       -0.3606412515        1.2900712614
 H        -0.8468227860       -0.9469742681        1.3850410216
 H         1.4917964673        2.4602063425        1.5858725224
 H         1.2193236090        0.7007139688        2.2900970810
 H        -0.0249997558        3.2435108829       -1.2693024086
 H        -1.6766010570        2.8975056844       -1.4312747651
 H        -0.4137434136        1.8133373758       -2.0962616673
 H        -0.4460960675        2.7972497215        1.6723347452
 H        -2.0345076194        2.6573489127        0.8679100069
 H        -1.5346322804        1.4249011470        1.9363218189
 H         3.3966007726        0.2101458852        0.7642467699
 H         3.5722989292        1.1060202912        2.4694547529
 H         3.1257176176        2.9930300179        3.8607074859
 H         3.6777129603        4.7082926418        3.8776140626
 H         5.5761843549        4.4175379439        2.5967412213
 H         6.3916290571        3.2706322334        1.6131980635
 H         5.4137606326        2.5875301037        2.7893947915
 H         5.4904627892        4.4252556136       -0.4322580838
 H         3.8336996833        4.7134515826       -0.7064134554
 H         4.5844697026        5.6199323569        0.5291118159
 H         1.0144484075        5.3668169867        3.7749704603
 H         0.8208007877        3.7479765812        3.7429304909
 H        -1.1054697834        2.6776562932        4.6643583313
 H        -0.3471610698        2.4551247247        6.2567907498
 H         1.4548015594        5.2536434737        8.1484249885
 H         0.1370523322        4.0064649431        8.2035496561
 H        -0.3264675530        5.6661447106        8.4460713426
 H         0.0134725493        6.7400206662        4.9672458997
 H        -0.4549829977        7.1666459948        6.5389361992
 H         1.2370088139        7.0374130101        6.1306257122
 H        -3.4388419924        3.0229599902        5.8148133727
 H        -2.5874082097        2.3175407632        7.3449140412
 H        -4.2510963896       -0.3396956744        3.2188327368
 H        -5.1985686158       -1.5335218065        4.0491410707
 H        -3.1287585454       -1.5789188923        7.0990099155
 H        -2.8691705766       -1.4535332294        5.3387288336
 H        -4.4102099147       -2.0167664983        6.0682065422
 H        -5.1152443859        1.6052981051        7.2244033179
 H        -5.4313040374       -0.1081910611        7.6580463419
 H        -3.9276719211        0.6555632715        8.2536207828
 H        -7.0293623852       -1.1175348789        2.7974179370
 H        -7.0400564329        0.6263352547        3.0541165688
 H        -5.6502271318       -0.5407665441       -2.8199468049
 H        -5.8511378107       -2.3371648218       -2.6057465388
 H        -7.3037322963       -1.1801967972       -2.5540712060
 H        -8.2357213622       -1.5684992387        0.6452577348
 H        -8.7651628618       -0.5092045588       -0.5704638992
 H        -8.4249504231        0.0417547585        1.1883054932
 H        -7.1177043887        1.2633838052       -1.8067326107
 H        -7.4619306520        2.0348911931       -0.3691272710
 H        -5.8130790759        1.7239677704       -0.7647708697
 Na        0.6650526902       -1.1518277927       -2.3663732808
