155

 C         5.9941751464        0.9695771924       -3.0029025872
 C         4.5610781311        0.6655927859       -3.1137661609
 C         3.6739026582        1.3297294830       -4.3369640217
 C         3.1899084739        0.1105183051       -5.0634981544
 C         3.8427103974       -0.1703330761       -6.4519942829
 C         2.5097645219        2.0830897004       -3.6312798803
 C         4.4322541240        2.2697734279       -5.2301510195
 O         3.9907632279       -0.2563189472       -2.5068122713
 O         2.3509792522       -0.6333962279       -4.5965830103
 C         3.1814045126       -1.4269729039       -7.1208214685
 C         3.6485298063       -2.6759801457       -6.5466502856
 C         2.8165926483       -4.0684089448       -6.8111256148
 C         2.1402746785       -4.4212451531       -5.3893773033
 C         2.9988706567       -5.0117080827       -4.2159929218
 O         4.5984208976       -2.7298693217       -5.7796291998
 O         0.9475891112       -4.3652026867       -5.3179941537
 C         1.7947402308       -4.0083134123       -7.8882146528
 C         3.8340360988       -5.1557133307       -7.1700312643
 C         1.9782108809       -5.5879100139       -3.1963030841
 C         1.0906300762       -4.4757624196       -2.5276519274
 C        -0.2650449264       -4.7904538418       -1.7854467197
 C        -0.6594169497       -3.5375922564       -0.9793296245
 C        -1.8323317247       -2.6921507826       -1.3700612457
 C        -1.3230081350       -5.1285891243       -2.9423726183
 C        -0.1444848576       -5.9791189661       -0.7289141586
 O         1.6468293264       -3.3724742124       -2.4038889225
 O        -0.2347271039       -3.4353296507        0.1378067011
 C        -2.0721474647       -1.4034028920       -0.4995371113
 C        -1.0959242764       -0.3895902240       -1.0046761492
 C        -0.8909111870        0.8958795294       -0.1739524104
 C         0.6781704760        0.8426131832        0.1998168395
 C         1.1660867275        1.9431815849        1.2197512843
 O        -0.4911553529       -0.5240123714       -2.0740197635
 O         1.4780618617        0.0354463118       -0.1697852376
 C        -1.2798225024        1.9502414525       -1.2404431646
 C        -1.8007209326        0.8406351750        1.0808606546
 C         2.6641059989        2.0845614814        1.5165465806
 C         3.2429916081        3.2093412501        0.6229006867
 C         3.7958856300        4.5047702171        1.4170690361
 C         2.5515587945        5.1919205130        2.0523181081
 C         1.9609282372        4.7300666158        3.4064245154
 C         4.8143085340        4.1583844017        2.4574666457
 C         4.3698085049        5.5276946395        0.3152869511
 O         3.3853807208        3.0441823382       -0.5308693901
 O         2.0863002505        6.2085374702        1.5715278608
 C         0.4598892681        5.0009768218        3.6279309174
 C        -0.4715402532        3.8135601069        3.9038940243
 C        -1.9832400599        4.2231312096        4.5366716714
 C        -2.7987766591        3.0112717652        3.7817228170
 C        -3.1678049146        1.6021894804        4.3189646040
 O        -0.0792751564        2.6254897277        3.7918861898
 O        -3.0464318122        3.1537155467        2.5493272700
 C        -1.8924006720        4.3440712973        6.0840185152
 C        -2.5673421573        5.4796618749        3.8490390420
 C        -3.8613314369        1.5126529928        5.7133322685
 C        -4.0951508341        0.0897122005        6.0042634016
 C        -5.4250969065       -0.5274671609        6.3664323970
 C        -6.3432258130       -0.4810794556        5.0477150655
 C        -6.2001867893       -1.6401360196        3.9724069775
 C        -5.2606873102       -2.0154136213        6.7917012028
 C        -6.0413449656        0.2882299955        7.5790321057
 O        -3.1701696907       -0.6840797231        5.6428394749
 O        -7.0152159870        0.5095034350        4.7964172633
 C        -7.0910167859       -1.3737139200        2.7431979502
 C        -6.3838150417       -0.2825074926        1.8410978886
 C        -7.2162784770        0.7774409660        1.0524300424
 C        -7.4566309215        0.3934031649       -0.5100684147
 C        -8.3631555933        1.1944455925       -1.3898406778
 O        -5.1521642005       -0.3273068310        1.6224709155
 O        -6.8759271767       -0.5388186666       -0.9484986286
 C        -8.5491954684        0.9919530861        1.7309351648
 C        -6.3888191796        2.1425263320        1.1618975125
 H         6.1884479687        1.6190836673       -2.1424607353
 H         6.6474935875        0.0851317842       -2.7983485258
 H         6.3221074427        1.5206867026       -3.8839246412
 H         3.4902984856        0.6699523012       -7.1366402845
 H         4.9095293053       -0.4105652175       -6.3369228009
 H         1.4232284918        1.9272870249       -3.8997820678
 H         2.7759029879        3.0835392485       -3.6435601693
 H         2.4175645237        1.7684154923       -2.5969474592
 H         5.1459937729        1.6124757914       -5.7589930599
 H         3.7614194047        2.7427438903       -5.8521909575
 H         4.9657999711        2.9958618346       -4.5956279615
 H         2.0420952139       -1.3366268623       -7.0060159855
 H         3.3085701288       -1.2386545931       -8.1876016378
 H         3.6420501518       -5.8696462092       -4.5176430055
 H         3.6235140184       -4.3346613462       -3.6816238713
 H         2.1816524792       -3.7322360224       -8.8805002867
 H         1.0184431930       -3.2870376527       -7.6285365669
 H         1.3064116977       -4.9918830442       -7.9650544535
 H         3.4509062606       -6.1989526385       -6.9608578311
 H         4.2477223293       -5.2001684919       -8.1790531558
 H         4.7070671023       -5.0686760096       -6.5405422391
 H         2.5769042761       -5.9733191477       -2.2897699010
 H         1.2114362399       -6.3529315354       -3.5133592424
 H        -1.8310838349       -2.4362478664       -2.4092336383
 H        -2.6847614655       -3.3522491739       -1.1286386157
 H        -0.9952485671       -4.4803135021       -3.7517709187
 H        -2.3864814025       -5.1358964406       -2.6973075909
 H        -1.1146183838       -6.1455360931       -3.4223288113
 H        -0.3577114794       -6.8334622280       -1.3804013808
 H         0.8412271552       -6.0348384354       -0.2602217790
 H        -0.9556550969       -5.9298987943       -0.0108762085
 H        -3.0766948510       -0.9527331431       -0.6427666240
 H        -1.9575566557       -1.6804887147        0.5185851948
 H         0.7102453249        2.8728391354        0.9565126481
 H         0.7565190221        1.6974503589        2.1709955697
 H        -1.1700482933        2.9787534622       -0.9717272670
 H        -2.2654209096        1.7864377654       -1.5665814538
 H        -0.6098016800        1.8897758938       -2.0796160770
 H        -1.5050588181        1.7072005602        1.6966555872
 H        -2.8445443642        0.8569527718        0.8231725187
 H        -1.6673942354       -0.0879242291        1.6696343078
 H         3.2488412618        1.1897290967        1.4302979292
 H         2.7340534876        2.1985622335        2.5780633731
 H         2.2533344263        3.6724061212        3.7070182264
 H         2.4281342654        5.4007914416        4.1374966347
 H         4.5828804496        4.8239891904        3.2692969962
 H         5.7752731886        4.3854531739        2.2226201735
 H         4.7788738840        3.1143712967        2.8594218769
 H         5.0590161958        4.9830472772       -0.3598830012
 H         3.5315413838        5.8464237198       -0.2393522403
 H         4.6703108563        6.4626077892        0.8397334090
 H         0.3255492430        5.8170461773        4.4195863029
 H         0.1229542514        5.5645251280        2.7039496272
 H        -3.7092188542        1.1422248449        3.5258339621
 H        -2.1673295505        1.0263962218        4.4334164054
 H        -1.2887964294        5.2074666104        6.3807609513
 H        -1.3980031800        3.5107323738        6.6103397918
 H        -2.8098348769        4.4204802994        6.6541049438
 H        -2.5051603593        5.4316367087        2.7779362105
 H        -3.6093244119        5.5845764087        4.1423612765
 H        -2.0686793756        6.4197290973        4.1364015378
 H        -4.7604070035        2.0808949086        5.8706579077
 H        -3.2062236942        1.8618085082        6.4481042684
 H        -5.1543803715       -1.7232475543        3.5620638785
 H        -6.4993882029       -2.5300555962        4.5190101837
 H        -4.8539353886       -2.0861580410        7.8108293340
 H        -4.5863663681       -2.4836717921        6.1507636084
 H        -6.3103210674       -2.3982656373        6.6922068151
 H        -6.4581881094        1.2605495246        7.3905319613
 H        -6.9415822092       -0.0742897204        8.0621365955
 H        -5.3852912583        0.4681101296        8.4042106625
 H        -7.1671619444       -2.2697376247        2.2387512281
 H        -8.1221768617       -1.1402520809        2.9389585969
 H        -9.1197256163        1.8051181221       -0.9118403350
 H        -7.8657912992        1.8540022106       -2.0771167466
 H        -8.8066934683        0.5191603122       -2.1238562012
 H        -9.2992520087        0.3190705468        1.4331268607
 H        -8.6661820504        2.0654605321        1.4318146929
 H        -8.3749488397        0.8626541233        2.8313320290
 H        -6.6505611506        2.8510958907        0.3456281350
 H        -6.7078529591        2.5525523798        2.0707156314
 H        -5.2930332829        1.9160552437        1.0038514128
 Na        1.7179614180       -1.1152998835       -2.1642896518
