155

 C        -2.4225752899       -9.3842490362        4.0933892501
 C        -2.1619764783       -8.3246319804        3.0917299319
 C        -0.7752490589       -7.9819259778        2.4999846064
 C        -0.6155256471       -6.7963247670        1.6107883350
 C        -1.5279350940       -6.7158943175        0.4019575318
 C         0.2373573605       -7.8309237713        3.7363287918
 C        -0.4799409089       -9.2103846787        1.6353744619
 O        -3.1156258616       -7.8341356349        2.4873319039
 O         0.3807280183       -6.0386228151        1.7942102681
 C        -1.4762154831       -5.5081919745       -0.5640338779
 C        -2.1990439629       -5.5874003454       -1.8842106720
 C        -2.4496496133       -4.2209243345       -2.7551744015
 C        -1.1816497529       -3.3771012574       -2.6273983637
 C        -0.3271396447       -2.8962050605       -3.7293991384
 O        -2.7852492408       -6.5353101288       -2.3243273561
 O        -0.8522780807       -3.1063040796       -1.4165720992
 C        -2.7826924103       -4.4683796014       -4.1825260675
 C        -3.7180908163       -3.6373793399       -2.0225279708
 C         1.0031578549       -2.3964824930       -3.1866239485
 C         0.9137134777       -1.1426869608       -2.4481317650
 C         1.8000897441       -0.7448628796       -1.0551500067
 C         2.6343297605        0.3779884779       -1.4414058590
 C         4.1970081052        0.2999805406       -1.7479752417
 C         0.6716809259       -0.1164079461       -0.1264987277
 C         2.5447011287       -1.8874206556       -0.3673662543
 O         0.1697800199       -0.2496296598       -2.8071474761
 O         2.1306735276        1.4931296781       -1.5586733949
 C         4.6340193264        1.0384166095       -3.0023040952
 C         3.7559092515        0.8047598813       -4.2096108120
 C         4.0416072063        1.4969965792       -5.5699649392
 C         2.7550400600        1.6900951717       -6.4319357521
 C         1.7866187175        0.6059619506       -6.7601511591
 O         2.9578466200       -0.1086122344       -4.2238012063
 O         2.4602458554        2.8468964611       -6.6487116619
 C         4.7105850799        2.8690313654       -5.3502692820
 C         5.0797875350        0.5097070565       -6.2045321294
 C         0.4579784728        1.2693087443       -7.0471321122
 C        -0.0333327312        2.1559861859       -5.7478306985
 C        -1.0778400199        3.2107860905       -5.7720946320
 C        -2.0252446986        3.2414263700       -4.5457137212
 C        -2.8690982760        4.5978677923       -4.4133991267
 C        -0.2877577373        4.4898333624       -5.9477493121
 C        -1.9445841448        3.1683716568       -7.0902698773
 O         0.5857506353        1.8518068336       -4.7416468955
 O        -2.2312760832        2.4107801939       -3.6809852808
 C        -2.8775787949        5.1534468806       -2.9631085800
 C        -1.4681851855        5.0177585503       -2.1812842288
 C        -1.3903826671        5.1412909651       -0.6674437590
 C        -1.4422906626        3.6511966384        0.0192207860
 C        -2.2585986537        3.4014377369        1.3576763193
 O        -0.4425120830        4.7260144581       -2.7701663099
 O        -0.9478844846        2.7224882300       -0.5131283103
 C        -0.0556781225        5.8345408788       -0.2219529432
 C        -2.6994346710        5.8867875157       -0.1662998735
 C        -1.7038825933        3.8748218191        2.7025697904
 C        -0.1625844041        3.8037573073        2.9170986377
 C         0.3363585743        3.5885115794        4.4594116873
 C         0.0528299851        2.0690409349        4.7069699053
 C         0.3115882240        1.3260924212        6.0830605243
 C         1.8417760835        3.8693823041        4.5206418997
 C        -0.4006426331        4.4707927386        5.5330558079
 O         0.6191308619        4.1879663368        2.0905846985
 O        -0.4021840002        1.4758476129        3.7820981416
 C        -0.9350101828        0.7782530892        6.6274826204
 C        -0.7041978324        0.1844662290        8.0803374321
 C        -1.9734781519       -0.2107313336        8.9521080948
 C        -2.8026502911        1.0244669059        9.2991864073
 C        -4.1611603057        0.7400368385        9.9395376925
 O         0.3918353275        0.0977761370        8.6302992603
 O        -2.4715861980        2.1439244672        8.8558429096
 C        -2.8992762700       -1.1772038654        8.0809113688
 C        -1.5527921773       -0.9558327708       10.2296025983
 H        -3.4071126350       -9.6993541080        4.1190995335
 H        -1.7175893805      -10.2366613934        4.0418271152
 H        -2.3455343850       -8.9273050901        5.0673556662
 H        -1.2838574824       -7.6830599325       -0.2280311625
 H        -2.5897096739       -7.0384466459        0.6347051005
 H         0.0166850392       -6.9559570902        4.3512029526
 H         1.2438936743       -7.7959222258        3.4241297786
 H         0.1135485737       -8.6528974421        4.4362380382
 H        -1.2977883831       -9.6352499437        1.1148752333
 H         0.3618310271       -8.9491833799        0.9189832367
 H        -0.3365957278      -10.0519264697        2.3490259132
 H        -1.9197378079       -4.6298589152       -0.0354927448
 H        -0.3936496466       -5.2502484524       -0.6831093704
 H         0.0070079468       -3.7405163419       -4.3784443088
 H        -0.8924906218       -2.2089504715       -4.4545211799
 H        -2.2948626000       -3.7915137014       -4.8433011773
 H        -3.8230292545       -4.4432475249       -4.2319713807
 H        -2.4536699172       -5.5114143592       -4.4845874018
 H        -3.5305594445       -3.5865839357       -0.9302169524
 H        -3.8178144449       -2.5896185038       -2.3477249255
 H        -4.5921025785       -4.2509306694       -2.1456299454
 H         1.4937762498       -2.3130868810       -4.1292617925
 H         1.5223882300       -3.1480097838       -2.6770921983
 H         4.8280799656        0.6109487453       -0.9253403438
 H         4.3640743281       -0.7719310385       -1.9586458825
 H         0.3669174525        0.7256622555       -0.6201714172
 H         1.0239819189        0.1613331491        0.8578999671
 H        -0.1876139241       -0.7798790899       -0.0180066138
 H         1.9391345106       -2.5095645072        0.2895940729
 H         2.8900867885       -2.6036706153       -1.1453496894
 H         3.3764094714       -1.5801912563        0.2160807908
 H         4.4782248244        2.1420184717       -2.7831294088
 H         5.6820619641        0.8740755904       -3.2569081630
 H         2.0819417312        0.0747164002       -7.7368811146
 H         1.6378204020       -0.1517738043       -5.9299758837
 H         4.0799020182        3.4092260722       -4.5742471118
 H         4.7748587986        3.5221117098       -6.2797935454
 H         5.7466372391        2.7253081959       -5.0584647317
 H         6.0057273685        1.0285202014       -6.4901300611
 H         5.4086415210       -0.3837295966       -5.5856504113
 H         4.6579775471        0.1777292643       -7.1666489816
 H        -0.2880907862        0.5175827481       -7.0368120254
 H         0.4643318171        1.8452829445       -7.9675917462
 H        -2.5096819961        5.3617858209       -5.1526711473
 H        -3.9212931197        4.3794733531       -4.6185220041
 H         0.2879119661        4.6523041545       -4.9985435598
 H        -0.8148089717        5.4162115774       -6.2261238560
 H         0.4258726740        4.4315481298       -6.8205962526
 H        -2.6428182767        3.9423488809       -7.0190489931
 H        -1.4200733563        3.3709995225       -8.0430272663
 H        -2.4394397100        2.1974293922       -7.2634031774
 H        -3.2693932489        6.1692996843       -3.0435167590
 H        -3.6868055913        4.5692797126       -2.3817062123
 H        -3.1061621761        4.0144573093        1.2411536623
 H        -2.3154593050        2.3330037521        1.2527245476
 H         0.7168559485        5.2711880260       -0.7373180972
 H         0.2295589469        5.7259272385        0.8599939944
 H        -0.1553414685        6.8696058968       -0.4373319459
 H        -2.7171350718        6.0025855449        0.9125856018
 H        -2.7681771283        6.8140806583       -0.7468974073
 H        -3.4839496524        5.1692713693       -0.3936278629
 H        -2.2248265494        3.3326233545        3.4699447500
 H        -2.0384334082        4.9078237881        2.6796760583
 H         0.9574079071        0.4858498186        5.8865624685
 H         0.7901160046        1.9970314478        6.7712612868
 H         2.4607911137        3.2579155787        3.8034444293
 H         2.2595339978        3.5692369931        5.5366263267
 H         2.0294959420        4.9070854854        4.2330275924
 H        -0.0857274587        4.2167975485        6.5977625398
 H        -0.2298770119        5.5672378010        5.3420529068
 H        -1.4643573355        4.2061820390        5.4760560319
 H        -1.6324646306        1.5858332024        6.7522372062
 H        -1.4807150096        0.0121599191        6.0147819611
 H        -4.3415293816       -0.2855447747       10.2828605278
 H        -4.2381487889        1.3557698109       10.8892038000
 H        -4.9375907944        1.1296647051        9.3008414233
 H        -3.6114559034       -1.6192667613        8.7737141368
 H        -2.2859363815       -1.9427700341        7.6250956048
 H        -3.3867285527       -0.6970941930        7.2443618490
 H        -2.4445027863       -1.4121439454       10.6472144101
 H        -0.6736709340       -1.6471693365       10.0779266534
 H        -1.1412340836       -0.2864914988       10.9519715355
 Na        0.1248124363        2.0259379444       -2.5231080862
