155

 C         7.0624653765       -1.6738473418       -2.6690055364
 C         5.8870178761       -0.8163431731       -2.4352554888
 C         5.7639066113        0.4889353741       -3.2597727501
 C         4.5780737367        0.3085278129       -4.4531545359
 C         4.7687208676        0.5958106443       -5.8764607344
 C         5.2551263803        1.6371354838       -2.4011679287
 C         7.1774971688        0.9344490658       -3.9503829009
 O         5.0348114156       -1.1139368657       -1.6580213221
 O         3.5476348231       -0.2668332817       -4.1534778618
 C         4.3049355925       -0.7338967078       -6.6820272509
 C         5.1111794986       -2.0322787432       -6.4066210399
 C         4.9040847478       -3.2388982564       -7.2567077866
 C         3.6789760026       -4.0240456257       -6.4625122839
 C         4.1076759577       -5.1341962196       -5.5086880000
 O         5.9418707828       -2.0326883107       -5.5265001556
 O         2.6031318376       -3.6991323009       -6.7148840886
 C         4.2915049099       -2.8925428792       -8.6333668124
 C         6.1397142455       -4.1438771238       -7.4689438439
 C         3.1300372249       -5.7129566774       -4.5526577617
 C         2.7122005620       -4.6840476277       -3.4260078482
 C         2.0064588618       -5.1997962657       -2.0948450321
 C         1.3405633182       -3.9099469422       -1.3986412282
 C        -0.1480813435       -3.6532010026       -1.7040882319
 C         1.0934444451       -6.4009907194       -2.2081861859
 C         3.1020916076       -5.6566188348       -1.2552714009
 O         3.1932020822       -3.6255752495       -3.4573186175
 O         1.9514460936       -3.1386856149       -0.7090502738
 C        -0.5745172073       -2.2918739053       -1.3275028105
 C        -0.0703223369       -1.2261997479       -2.2203413865
 C        -0.4300457803        0.4226920043       -1.8793096705
 C         0.7202033267        0.9249258798       -0.9204371568
 C         0.5430131501        2.2393671748        0.0058530799
 O         0.5366066026       -1.4846073686       -3.2134818399
 O         1.8246218760        0.4080546677       -0.9401289757
 C        -0.2853835669        1.1746931586       -3.3021628839
 C        -1.7098670269        0.5615448033       -1.2610419691
 C         1.3391681458        2.1710039997        1.2667336904
 C         2.2366570560        3.4420189356        1.3138745962
 C         1.5910661321        4.8393616590        1.8222386667
 C         0.0862992128        4.8027927799        1.9865133468
 C        -0.4964140153        5.1713567807        3.3826716761
 C         2.4414920297        5.1655710345        3.0584489639
 C         1.7850109720        5.8744287430        0.7280064778
 O         3.4156249609        3.2912116240        1.1627096280
 O        -0.6850339686        4.7321647140        1.0413926984
 C        -1.8735804536        4.6142695553        3.7404376215
 C        -2.2363222072        4.8186136106        5.2567385157
 C        -3.7165914194        5.0035339580        5.7653658575
 C        -4.4953573764        3.6726455995        5.2339920967
 C        -4.7584387507        2.5537557208        6.1992624076
 O        -1.3656073222        4.7593026185        6.1377327180
 O        -4.6424504149        3.5483355822        4.0752874336
 C        -3.7270438868        5.1144003525        7.3120700385
 C        -4.2289877759        6.1853339903        4.9597356151
 C        -5.4512051691        1.3707636783        5.4848512279
 C        -5.2073443447        0.0248669458        6.1594728919
 C        -6.3840021526       -1.0136082981        6.1883120221
 C        -7.2477361188       -0.7304681916        4.9879063022
 C        -6.8761419338       -1.2636854883        3.6350431050
 C        -5.8349127224       -2.4115555912        6.1521102634
 C        -7.1607791154       -0.7228200429        7.5651972437
 O        -4.1428899835       -0.2819226917        6.7003748988
 O        -8.1721499481        0.0782609925        5.0249767217
 C        -7.8101695518       -0.7931075364        2.5253428949
 C        -7.3279891975       -0.1066464701        1.3277231948
 C        -8.3172790283        0.9148006890        0.6766027416
 C        -9.7170426857        0.3727106459        0.3132219270
 C       -10.6327452341        1.3110893191       -0.4470912382
 O        -6.1800831297       -0.1549217699        0.9768981481
 O       -10.2173724470       -0.6555423108        0.7405204857
 C        -8.5706020680        2.0679083451        1.6791631309
 C        -7.6251173801        1.4743155148       -0.6097544661
 H         7.9577116175       -1.1662322052       -2.2567491006
 H         6.8382257071       -2.5572182812       -2.1201345166
 H         7.3102444305       -1.9273685415       -3.7538017399
 H         4.1670923955        1.3622479946       -6.2477803540
 H         5.7465531606        0.7936309580       -6.2568545915
 H         5.8223531669        2.5193013336       -2.4892261335
 H         5.2879675417        1.2150759668       -1.3557850382
 H         4.2991142641        1.9892510350       -2.7724994586
 H         7.5568285591        0.2115330467       -4.6184412963
 H         6.9981673902        1.9343217533       -4.3441734475
 H         8.0355433307        0.9480080070       -3.2823255887
 H         3.2866702541       -0.9888678355       -6.4924498693
 H         4.4115012187       -0.5840023815       -7.7517233365
 H         4.5516752704       -5.9215377931       -6.0950516881
 H         4.9553920845       -4.5528319071       -5.0016438056
 H         4.9612560663       -2.3876771842       -9.3144449126
 H         3.4032309849       -2.4021145888       -8.5553496626
 H         4.0740550017       -3.8606066066       -9.1322134170
 H         5.7409350674       -5.0849902033       -7.7858810235
 H         6.8880593836       -3.7000767018       -8.1781945517
 H         6.5657653987       -4.2358168935       -6.4219323021
 H         3.4359672696       -6.6425713129       -3.9788788396
 H         2.3213244782       -6.0841327906       -5.1189402993
 H        -0.4287904753       -3.8816792897       -2.7356135607
 H        -0.7573986947       -4.3440545602       -1.1495439715
 H         0.2865101228       -6.4091711392       -3.0090259193
 H         0.5134265783       -6.3544264448       -1.2651329504
 H         1.6765294429       -7.2867149070       -2.1837082754
 H         3.7364179155       -6.3302977417       -1.7569198691
 H         3.6847364719       -4.8335541059       -0.7746953477
 H         2.6686903045       -6.0612553828       -0.3628926666
 H        -1.6314638604       -2.2821056681       -1.3221655248
 H        -0.3226478525       -2.0896123893       -0.2674281772
 H         0.8868818861        3.0194967672       -0.7214022691
 H        -0.5336713418        2.6060810455        0.1982513691
 H        -0.4525546405        2.1659461860       -3.2559221935
 H        -0.9436965653        0.6635156169       -3.9608493070
 H         0.6789552928        1.0315641224       -3.7350462002
 H        -1.9974469584        1.6333944551       -1.3401408167
 H        -2.5085637991       -0.0083752490       -1.6184437335
 H        -1.6081619535        0.4236018546       -0.2142887676
 H         2.1581118780        1.3583400893        1.3376669716
 H         0.8114250109        2.1136947567        2.1597809682
 H         0.1818211704        4.8897533692        4.1484514086
 H        -0.4741293484        6.2684966574        3.3742686929
 H         2.1667607593        6.0914239080        3.4713743764
 H         3.4892542413        5.0804469751        2.7694430722
 H         2.1272162637        4.5266137454        3.8378763500
 H         2.8679704013        5.6817939812        0.4063894067
 H         1.2427789652        5.6036604802       -0.2246943137
 H         1.5583175942        6.9393764631        0.9049447651
 H        -2.6282244277        5.1449180543        3.1467447397
 H        -1.9463735712        3.4889668991        3.5992742265
 H        -3.7310174816        2.1760319013        6.6101666844
 H        -5.2377640098        2.8085377195        7.0994821985
 H        -3.0983852753        5.9039352934        7.7272774989
 H        -3.4123942039        4.1226393797        7.6988673881
 H        -4.7713059260        5.4619875355        7.4940821012
 H        -4.5195301301        5.8999889974        4.0005767936
 H        -5.2166943701        6.5157017114        5.4189793723
 H        -3.3960762219        6.8957070165        4.9956085680
 H        -5.2457676072        1.3101896853        4.4132618372
 H        -6.4957875186        1.5753350985        5.6148527750
 H        -5.8704058802       -0.8486015016        3.4218552687
 H        -6.8663743021       -2.3957193461        3.6315257121
 H        -5.4957740650       -2.6978733953        7.1519430908
 H        -5.0956291813       -2.6731150652        5.4456519274
 H        -6.7260802576       -3.0844509932        6.0358834440
 H        -7.5079712591        0.3236297359        7.4883622508
 H        -8.0712442482       -1.2930648956        7.6146979362
 H        -6.6957002014       -0.9819533655        8.4569720847
 H        -8.2695173740       -1.6508245778        1.9746949759
 H        -8.7875134523       -0.3607213036        2.8706972596
 H       -10.4209606416        2.3390515399       -0.1619585522
 H       -10.3208428239        1.2056090930       -1.5793137893
 H       -11.6521314610        1.0841971872       -0.3545110049
 H        -9.3496725376        1.8274237381        2.3773017654
 H        -8.9089868945        2.9575786245        1.0643131809
 H        -7.7185691573        2.5385542662        2.2455857262
 H        -7.7828715618        2.5525763425       -0.8332920046
 H        -6.5621113826        1.2434453581       -0.5618910921
 H        -8.0846042954        1.0130399939       -1.5519893493
 Na        2.8167546042       -1.4430529234       -2.4355410759
