155

 C         7.1294962534       -1.7053939719       -2.5062247366
 C         6.0094411815       -0.7711702731       -2.4537075441
 C         5.9268550074        0.5918607851       -3.1502221782
 C         4.8165537200        0.4316402921       -4.3177467754
 C         5.1730658501        0.5071990816       -5.8202143586
 C         5.2453669191        1.5605807445       -2.2041795738
 C         7.2462539196        1.0702683031       -3.8007018389
 O         5.0170700211       -1.1604914934       -1.7833394877
 O         3.6561502066        0.1526629169       -4.0531334490
 C         4.4295444561       -0.5666872530       -6.6467352218
 C         5.1420812760       -1.8813439342       -6.4054265976
 C         4.9280283785       -3.1836047793       -7.2365609536
 C         3.7342645074       -4.1515417194       -6.5578302762
 C         4.0946736878       -5.2611198677       -5.4853360372
 O         6.0605256186       -1.8956515610       -5.5988902265
 O         2.5297779274       -4.0392459689       -6.9348685945
 C         4.4835196426       -2.8470912711       -8.6416560101
 C         6.3007982127       -3.9198429858       -7.2615203150
 C         2.8000185412       -5.5607557372       -4.6941431493
 C         2.7950560185       -4.8290203335       -3.3851373874
 C         2.0357068075       -5.3501165110       -2.1133400385
 C         1.2714975340       -4.0656007305       -1.4853135442
 C        -0.2058267896       -3.7694290992       -1.6509995387
 C         0.9994732973       -6.5171753196       -2.2375042687
 C         3.2529881080       -5.5774722094       -1.1723992705
 O         3.2140119012       -3.6352843459       -3.4508088546
 O         1.9469513336       -3.1569553591       -1.0016055619
 C        -0.5425459683       -2.2773787783       -1.2477502385
 C         0.0652908389       -1.1865411485       -2.1167072630
 C        -0.1526811485        0.2405195086       -1.8794019156
 C         0.9617438401        0.7969078240       -0.9305719319
 C         0.5010785586        1.9593813693       -0.0605998324
 O         0.7336064886       -1.6225472196       -3.0844756670
 O         2.1484614490        0.4990605378       -1.0606043385
 C        -0.0533952889        1.0733537916       -3.2136646621
 C        -1.6712765294        0.4419626850       -1.3494248620
 C         1.2799765845        2.2648475532        1.2180711890
 C         2.0703200192        3.5637427030        1.1755033525
 C         1.4096596366        4.9703864713        1.7731044185
 C        -0.0497588771        4.7304077070        2.1136429888
 C        -0.4738790341        5.1444940747        3.4616896425
 C         2.2577791165        5.4513727230        3.0006894123
 C         1.8117535405        5.8361899443        0.6142713241
 O         3.2324383818        3.4478549576        0.8568175893
 O        -0.8423422485        4.1514068567        1.3968516258
 C        -1.8187098219        4.5914508069        3.7976311994
 C        -2.1356666590        4.8743484578        5.2964796792
 C        -3.6358985394        4.9493208658        5.7332112597
 C        -4.3973522216        3.6144327531        5.2972479650
 C        -4.9977476636        2.6764307805        6.3487279897
 O        -1.3318482789        4.9049435697        6.1633157604
 O        -4.6617067679        3.4415087008        4.0836635190
 C        -3.8482058248        5.2527769582        7.2377951289
 C        -4.4360964294        6.0202707413        4.9617111825
 C        -5.7085337350        1.4675426750        5.6811457462
 C        -5.1818167560        0.1198971347        6.1532103950
 C        -6.4149145414       -0.9985764563        6.1849025108
 C        -7.3255772577       -0.7296334435        4.9181662744
 C        -6.8456170798       -1.2075327489        3.5427293893
 C        -5.8932127837       -2.4320348720        6.2341470933
 C        -7.3175495052       -0.7847654622        7.3106749263
 O        -4.0632411310       -0.2074424570        6.4677086971
 O        -8.2741871157        0.0190554111        4.9566010243
 C        -7.9314142416       -1.0075263587        2.4008625853
 C        -7.4260785698       -0.0464629467        1.2424381789
 C        -8.4284598263        0.9740565141        0.6275950731
 C        -9.8073214430        0.4042242237        0.3652049298
 C       -10.8473320868        1.2267526733       -0.4786106368
 O        -6.2569882579       -0.1363082654        0.9172717368
 O       -10.1445110015       -0.6615406904        0.7982220409
 C        -8.6521796349        2.0211168470        1.8303941004
 C        -7.8576160323        1.6486944733       -0.5653914092
 H         7.9254965308       -1.4231403599       -1.8666846740
 H         6.7208483500       -2.7195420660       -2.2545720609
 H         7.5282314940       -1.7540928987       -3.4806784191
 H         4.8112402907        1.4277385860       -6.3365614280
 H         6.1987760615        0.4162543706       -6.1802447237
 H         5.4401348315        2.6409036612       -2.4484072311
 H         5.4424437780        1.3107105098       -1.1636401020
 H         4.1910666553        1.5345650607       -2.5194783987
 H         7.7947582527        0.2231249956       -4.3369983857
 H         6.9724936449        1.9060239840       -4.4109767883
 H         8.0120529752        1.4333052331       -3.0597872921
 H         3.3268786871       -0.6018374555       -6.3542870729
 H         4.3757086011       -0.3891491492       -7.7612267687
 H         4.2806124245       -6.1643670012       -6.1585099787
 H         4.9239622893       -5.0100843409       -4.8796229839
 H         5.0844354980       -2.0475053017       -9.0955548522
 H         3.3840084305       -2.5062989649       -8.6525877796
 H         4.5777304229       -3.6791384363       -9.2930018310
 H         6.1542206797       -4.9037164883       -7.7197555160
 H         6.9474106761       -3.3635311777       -7.8887792160
 H         6.7729651486       -3.9544568142       -6.3313860361
 H         2.6669778727       -6.6067495753       -4.4580071363
 H         1.8365249875       -5.2858489583       -5.1628851326
 H        -0.4291452545       -4.0264719637       -2.6962195237
 H        -0.8525206967       -4.5272296050       -1.1440038052
 H         0.1133745457       -6.1374701445       -2.7010222286
 H         0.7014175559       -6.9679318701       -1.2872759345
 H         1.4510251632       -7.2921566770       -2.9498826268
 H         3.7560011885       -6.5188803914       -1.4696958337
 H         3.9256649466       -4.7702544066       -1.1375096042
 H         3.0447876688       -5.6482822209       -0.1302622705
 H        -1.6757011859       -2.1235346159       -1.2738859323
 H        -0.3324539617       -2.2260004288       -0.1754799923
 H         0.6123046874        2.7255161195       -0.8194706356
 H        -0.5345606128        1.9255784738        0.1118790633
 H         0.0215930469        2.1453678317       -2.7592575602
 H        -0.9463111663        1.0017566268       -3.8827541534
 H         0.8228036051        0.9170187945       -3.8418347153
 H        -2.0918893685        1.3980233546       -1.1747261684
 H        -2.3069216407       -0.0295056353       -2.1045786644
 H        -1.8691836944       -0.0862388622       -0.4257762044
 H         2.0145339417        1.5580816463        1.4592386257
 H         0.7191255279        2.2940589465        2.2226464427
 H         0.2946540741        4.8927470299        4.2579852152
 H        -0.3586610726        6.2298285720        3.3963948471
 H         1.7587860831        6.3232697122        3.4609233601
 H         3.2552533377        5.5898188782        2.6219946188
 H         2.3464589454        4.7074223588        3.8502535084
 H         2.8267614729        6.0603079613        0.5250891129
 H         1.4265978316        5.5370238478       -0.3211212447
 H         1.3122490495        6.8047355406        0.8848178492
 H        -2.5065782675        5.0721805899        3.0920379172
 H        -1.6809049040        3.5299671922        3.7968510547
 H        -4.2983387970        2.4167968796        7.0565687858
 H        -5.7421092171        3.2977460119        6.9037290863
 H        -3.5274327841        6.3091237233        7.2790734944
 H        -3.1905285710        4.6382822844        7.8483357459
 H        -4.8745472218        5.3956561852        7.5150883305
 H        -4.5333535443        5.7771103571        3.8691814111
 H        -5.4081176384        6.0094276561        5.3333236975
 H        -3.9754809617        6.9823890795        5.2144276031
 H        -5.4453196083        1.5626196138        4.6378526003
 H        -6.8084634898        1.6193255913        5.6969946655
 H        -5.8687697155       -0.7996876820        3.2251221388
 H        -6.7833326270       -2.2752619877        3.6126185241
 H        -5.4144629091       -2.7641893865        7.1372360095
 H        -5.1402769755       -2.5825439006        5.4440460859
 H        -6.7253794064       -3.0721471344        6.0989841194
 H        -7.8377568740        0.1519442203        7.3829803512
 H        -8.0869357720       -1.5828043341        7.2960908037
 H        -6.7689193979       -1.1467968862        8.2467995440
 H        -8.0336565547       -1.9891335001        1.9950063666
 H        -8.9037476128       -0.7549123593        2.6748310754
 H       -10.7682545386        2.3308836256       -0.3528865611
 H       -10.7960235911        1.0761004325       -1.4874441354
 H       -11.7835284965        0.8302774344       -0.0499821798
 H        -9.1563807204        1.6031718914        2.7261841085
 H        -9.2246083075        2.8689826120        1.5336773350
 H        -7.6718137158        2.3876022361        2.1214125467
 H        -8.1588105145        2.7119495333       -0.4986148411
 H        -6.7798191560        1.5335215818       -0.6237275477
 H        -8.2555551854        1.3261638509       -1.4964933712
 Na        2.8177109898       -1.3458412576       -2.3710785893
