155

 C         7.7152586467       -1.4378928139       -2.5251458630
 C         6.3664710076       -0.8279516672       -2.4874502133
 C         6.0132560333        0.5438924645       -3.0023270498
 C         4.9687649439        0.3876721030       -4.1468372436
 C         5.3625287566        0.5423764268       -5.6055472150
 C         5.2404313751        1.4090809697       -1.9212295168
 C         7.1822860502        1.2979716108       -3.5869961892
 O         5.4623969442       -1.4217103550       -1.9375578740
 O         3.8198742490        0.2353702302       -3.8695929062
 C         4.8153831905       -0.6101777247       -6.4993878351
 C         5.3659119947       -2.0733803638       -6.1735331882
 C         5.1095254620       -3.2151470180       -7.2542057211
 C         3.8363056795       -4.0106975354       -6.7636887715
 C         4.1167335567       -5.0373799555       -5.5932928177
 O         6.0156678962       -2.3034845783       -5.1644081961
 O         2.7565582297       -3.6753531932       -7.2029011801
 C         4.8672758562       -2.6659243791       -8.6630845760
 C         6.3467034901       -4.1046281419       -7.3194724168
 C         2.9140211727       -5.3855982458       -4.6603645061
 C         2.7437009716       -4.4717684312       -3.4370057970
 C         2.1385627611       -5.0701156731       -2.1767973310
 C         1.3717797903       -3.8811551464       -1.3557973375
 C        -0.1226730631       -3.8348230990       -1.4785646753
 C         1.1261571737       -6.2480964133       -2.6389816314
 C         3.2750472218       -5.6263781227       -1.3699943714
 O         3.2785657607       -3.3971367631       -3.4348232179
 O         1.9822452056       -3.0289305832       -0.7923918992
 C        -0.6326020431       -2.4204398452       -1.2459448966
 C         0.0331750747       -1.4065652837       -2.1865762780
 C        -0.1062904443        0.1169488492       -1.9731628654
 C         0.9024544433        0.5568496536       -0.8958866872
 C         0.5413126191        1.6154947464        0.1556104173
 O         0.7775249011       -1.8677542083       -3.0703449135
 O         1.9991541060        0.0779065134       -0.8173683801
 C         0.2282049607        0.8604113289       -3.2609139782
 C        -1.6098833478        0.5585789960       -1.5619208194
 C         1.7090454598        2.1513477443        0.9964853942
 C         2.1290353570        3.6133612109        0.8380769837
 C         1.3208270254        4.7612196913        1.5396386998
 C        -0.0071172218        4.4571883853        2.2874630480
 C        -0.4251121523        5.0855410544        3.6131901937
 C         2.3343746572        5.4928393648        2.5090687988
 C         0.8701968362        5.8619507473        0.5373395315
 O         3.1761649301        3.9215929280        0.3208725686
 O        -0.7525059346        3.6932414113        1.7505105636
 C        -1.8857291396        4.7887926037        3.8730195332
 C        -2.2805833376        5.0156218442        5.4056218740
 C        -3.8923695250        5.0356301493        5.7508625143
 C        -4.4964278029        3.6169149757        5.3805344212
 C        -4.9949830648        2.7108200523        6.5041286500
 O        -1.4605370337        5.2417001422        6.2827035325
 O        -4.5013307124        3.2452527904        4.2300124258
 C        -4.0302165848        5.4418103907        7.3189844115
 C        -4.6894656950        6.1274761995        4.9828048624
 C        -6.1482174930        1.7344163830        6.1133202097
 C        -5.5552783430        0.2595918411        6.1137022725
 C        -6.5432763890       -0.8907970167        5.9143940980
 C        -7.4804721687       -0.7719642461        4.6935116371
 C        -6.9800010847       -1.4554931559        3.4087214420
 C        -5.7280716400       -2.2379938041        5.9221829013
 C        -7.5492705774       -1.0453148370        7.1717102982
 O        -4.3325775894       -0.0014463802        6.1177223053
 O        -8.5393419572       -0.1890459552        4.7722638746
 C        -7.9059364849       -1.2162380666        2.2120103292
 C        -7.4714635405       -0.0213162632        1.1982964015
 C        -8.6709817052        1.0252556757        0.8486998877
 C        -9.9867308969        0.3383722527        0.4663365646
 C       -11.0323069088        1.1645208951       -0.3166542049
 O        -6.3991602881       -0.1087129170        0.6768830688
 O       -10.2063729918       -0.8175494102        0.7672748272
 C        -9.0568529113        1.8736629025        2.0820638061
 C        -8.1201055503        1.8590811233       -0.3257964936
 H         8.5162950520       -0.8465990090       -2.2174225825
 H         7.6470513703       -2.3999473385       -1.9469810231
 H         7.9413337908       -1.7718509944       -3.5562527590
 H         4.9363528590        1.4611644698       -5.9890982752
 H         6.3977449673        0.5441949045       -5.8906400832
 H         4.6067338303        2.2054023676       -2.3345591650
 H         6.0643365381        1.9229093679       -1.2442850492
 H         4.7084389728        0.7291800755       -1.2178433054
 H         7.6128031392        0.7020275524       -4.4415834660
 H         6.9015140101        2.1884972060       -4.0809234854
 H         7.8549048132        1.6581995931       -2.7428645782
 H         3.7462386845       -0.5528720023       -6.7088694658
 H         5.0931997874       -0.4836350858       -7.5585535676
 H         4.4462333353       -6.0257666262       -6.0706777009
 H         4.8780591322       -4.5255205876       -5.0377120669
 H         5.7281936619       -2.1600757788       -9.0810467299
 H         4.0504490030       -1.9316889178       -8.7305401591
 H         4.5829988095       -3.4693062012       -9.2770879246
 H         6.0760371267       -5.0879131520       -7.6404283125
 H         7.0722570286       -3.7714315041       -8.0006705540
 H         6.7858486547       -4.1291317987       -6.3446054784
 H         3.2500759398       -6.3585810640       -4.2449479508
 H         2.1402514229       -5.6296689771       -5.3029251123
 H        -0.4817749004       -4.1170509589       -2.4627840654
 H        -0.5791653060       -4.6372615675       -0.8831620982
 H         0.7087292908       -5.9663846626       -3.6197049450
 H         0.3905459848       -6.2639321874       -1.8535128667
 H         1.6399351984       -7.2710971837       -2.7191236395
 H         3.9832412646       -6.3079609921       -1.8030383004
 H         3.7864139031       -4.8107768725       -0.8726860206
 H         2.8801496595       -6.2209180207       -0.6148031972
 H        -1.7331569609       -2.4587569439       -1.5258462272
 H        -0.5681251583       -2.1226363957       -0.1993021382
 H         0.0198954212        2.4404252495       -0.3381867362
 H        -0.1563299141        1.1090799783        0.8136964277
 H        -0.1617736745        1.8508259731       -3.1439402134
 H        -0.2822749780        0.4595509285       -4.1347907400
 H         1.2619363106        0.8766398302       -3.4266643263
 H        -1.7855028959        1.6128065048       -1.4202646765
 H        -2.2290091000        0.2699631848       -2.3750318405
 H        -1.9916949139        0.0221588013       -0.7385517664
 H         2.5240040777        1.4948426798        1.1406835438
 H         1.2960876349        2.1334485826        2.0662697144
 H         0.2426971551        4.7596110427        4.4431993911
 H        -0.1932521470        6.1114996498        3.4915430120
 H         2.0249277132        6.4200374375        2.9361830449
 H         3.1935781578        5.6039662463        1.9332356771
 H         2.6774575371        4.6802405623        3.1516361472
 H         1.6852328727        6.4040978270        0.0726058042
 H         0.1651614598        5.4593462649       -0.1773575786
 H         0.4628056536        6.7132697885        1.1858302629
 H        -2.4198565198        5.5271191622        3.2939550157
 H        -1.9543167365        3.7687352230        3.6538050463
 H        -4.2660909142        2.0868427282        6.8143258279
 H        -5.2827199741        3.3198533707        7.3360985419
 H        -3.4637602520        6.3785903029        7.5785558623
 H        -3.6403383865        4.6273688981        7.9812505094
 H        -5.1322704478        5.5605543698        7.5750132598
 H        -4.9684248118        5.6880171500        4.0183257847
 H        -5.5445168191        6.1921910826        5.5617253559
 H        -4.3160265287        7.1645867426        4.9531513125
 H        -6.3338546628        1.8816403338        5.0935456385
 H        -7.1047710996        1.8880625355        6.5973116899
 H        -5.8802591666       -1.1781106393        3.2341414509
 H        -7.0296566962       -2.5197176454        3.7119285033
 H        -5.2289995908       -2.4551591170        6.8606581383
 H        -4.9606169743       -2.2851345528        5.1577122041
 H        -6.4220363081       -3.0597832684        5.7419433969
 H        -8.4452303778       -0.4879774686        7.1131356904
 H        -7.8621033960       -2.0900069257        7.2437538934
 H        -6.9940107004       -0.7254431691        8.1051586194
 H        -7.8569376719       -2.0342816980        1.5465716428
 H        -8.8723252261       -1.1323692772        2.5663129721
 H       -11.0816563198        2.2414914453        0.0356282335
 H       -10.7239650832        1.2935009183       -1.3252889274
 H       -11.9532523815        0.6898505725       -0.1775766756
 H        -9.4738597859        1.2370617012        2.8897335197
 H        -9.8509001452        2.5424009228        1.8910675882
 H        -8.1137712851        2.3204060455        2.4927438873
 H        -8.8851318804        2.6440298335       -0.7118902023
 H        -7.2618475715        2.3708885896        0.0334893201
 H        -7.6885888268        1.1943471275       -1.0812618796
 Na        3.0136649000       -1.2751575959       -2.3690228623
