155

 C         8.0586284084       -1.1549431200       -2.5186666121
 C         6.5832573385       -0.8672433386       -2.4335178969
 C         6.0779295430        0.5680776959       -2.8330174534
 C         5.1146557654        0.2088080033       -4.0299959798
 C         5.6618997242        0.4008019702       -5.4449364272
 C         5.1299446630        1.0221152812       -1.7478073589
 C         7.2342726465        1.5949058905       -3.1861795875
 O         5.8316641113       -1.7472087161       -2.0667375896
 O         4.0009224496       -0.2125900328       -3.8126290695
 C         5.0858103759       -0.5544266065       -6.5124462149
 C         5.7591424962       -1.9885144753       -6.3470853686
 C         5.4246487099       -3.1462021756       -7.3272181902
 C         4.0697303357       -3.7813463968       -6.6472402655
 C         4.3245340462       -4.9630912550       -5.7090311437
 O         6.1993614317       -2.2775907000       -5.2541979077
 O         3.0326684624       -3.3196796008       -6.8753644027
 C         4.9847683782       -2.7239114823       -8.7660409328
 C         6.7184124169       -4.0297378480       -7.3888014858
 C         3.0364124107       -5.3780882415       -4.8285082755
 C         2.7003942130       -4.3390252470       -3.5877381801
 C         2.1204103476       -4.9431815857       -2.3665022759
 C         1.4309538697       -3.8162525734       -1.3890869175
 C        -0.1161638853       -3.7152614839       -1.4017212602
 C         1.1726225647       -6.0651993639       -2.7177032904
 C         3.2957690958       -5.4247300407       -1.5133251170
 O         3.2470569149       -3.2720138246       -3.6879421271
 O         2.0904689848       -3.0515114525       -0.7806118965
 C        -0.5972240804       -2.2904219729       -1.0805906785
 C        -0.0438640683       -1.4194827458       -2.2763677990
 C        -0.0365289149        0.1829417615       -1.9390092456
 C         0.9040596656        0.4777319520       -0.7915911640
 C         0.5539690052        1.5908138261        0.2734240243
 O         0.6761389932       -1.8068531746       -3.1770623482
 O         1.9740139325       -0.0337138335       -0.6199137242
 C         0.5469444233        0.9781052788       -3.1103754736
 C        -1.4039083586        0.6344627597       -1.5876252610
 C         1.7558886407        2.1984601493        0.9982624984
 C         1.8124539044        3.6741856801        0.6066860084
 C         1.0410075260        4.7907098993        1.5071778601
 C        -0.0520556790        4.0496080031        2.4016982633
 C        -0.4642787686        4.7222968907        3.7547634995
 C         2.1543792097        5.5287514988        2.4316802415
 C         0.1390794725        5.6853691977        0.5676207655
 O         2.2941830714        3.9524209998       -0.4632882466
 O        -0.7396743372        3.1287835406        2.0201567583
 C        -1.9860005230        4.9175515337        3.8129602980
 C        -2.4732694197        5.0691739950        5.2889621479
 C        -3.9289199304        5.1316385654        5.7836423809
 C        -4.6008312517        3.5816593090        5.5526637341
 C        -5.3431882567        2.8123064939        6.7279535023
 O        -1.5772448980        5.2665202900        6.1254199561
 O        -4.5658058320        3.0815574788        4.5091882685
 C        -4.0852749250        5.5007427163        7.2601096706
 C        -4.7445708921        6.2349233919        4.9395435745
 C        -6.2858577677        1.7527666597        6.0869414705
 C        -5.5277863133        0.3929437120        5.9637926787
 C        -6.4804170719       -0.8894138812        5.8567604304
 C        -7.3933633664       -0.7403335196        4.5311213276
 C        -6.9760173145       -1.5706231730        3.2671060126
 C        -5.6629759305       -2.1907541130        5.7714309338
 C        -7.5266156380       -0.9644477772        6.9953061646
 O        -4.2900454628        0.3540668803        5.9127371236
 O        -8.3572841154        0.0116405638        4.5496730261
 C        -8.0884559226       -1.4251991713        2.1457011624
 C        -7.7950309436       -0.1696211764        1.3202779008
 C        -8.9568391089        0.9291484956        1.0410001046
 C       -10.1863815429        0.3120505431        0.3234398590
 C       -11.2533201554        1.2374070708       -0.2982030587
 O        -6.7084749752       -0.0135751345        0.8372467386
 O       -10.3041217107       -0.8989358517        0.1254594107
 C        -9.3158241701        1.5784149047        2.3891084985
 C        -8.4163765518        2.0055647061        0.0012619986
 H         8.6126341511       -0.5422540418       -1.8466813279
 H         8.3488142137       -2.1753667319       -2.3091232229
 H         8.4212189090       -0.9019896229       -3.5810860806
 H         5.6037399950        1.3858018760       -5.7857615856
 H         6.6890363757        0.0744148525       -5.4516494477
 H         5.0838396150        2.0741243023       -1.7903175216
 H         5.4005071745        0.7552644256       -0.6570176026
 H         4.1636321024        0.5434264191       -1.7628743179
 H         7.5689942498        1.5948930547       -4.2520924329
 H         6.8389666635        2.5718877426       -3.1085404890
 H         8.1045399531        1.6093973351       -2.4744954015
 H         4.0341632577       -0.7133526286       -6.4576241874
 H         5.0332939437       -0.1930006217       -7.5385393663
 H         4.7139850041       -5.7526395259       -6.4215244238
 H         5.0454256003       -4.7109381173       -4.9519385483
 H         5.7688052500       -2.0836312772       -9.2034538166
 H         4.0155015410       -2.2905163704       -8.9268883409
 H         5.0089865220       -3.6234607766       -9.3566387728
 H         6.8261748664       -4.7835116601       -8.1423484778
 H         7.5673050260       -3.3332369076       -7.5987420730
 H         6.8936749166       -4.6000289095       -6.4243424576
 H         3.3314550163       -6.4255580316       -4.5553377438
 H         2.2152609597       -5.4793002263       -5.4324420772
 H        -0.5731335276       -3.9981562150       -2.3339525565
 H        -0.5125312202       -4.3749836265       -0.6237351772
 H         0.6085411539       -5.6125325353       -3.5633549725
 H         0.5939387274       -6.2479987052       -1.8591445749
 H         1.7106635394       -6.9677044714       -2.9938264801
 H         3.8523589234       -6.2889293599       -1.9490103238
 H         4.1564909785       -4.7076622044       -1.4093648813
 H         2.9246539416       -5.8281700400       -0.5947128723
 H        -1.6965863712       -2.3029747769       -1.0177660150
 H        -0.1765829128       -1.9997890939       -0.1484860548
 H         0.1556160236        2.4373403226       -0.3293305599
 H        -0.1805480093        1.2597273876        1.0282774128
 H         0.7414565007        1.8929236907       -2.7309324671
 H        -0.1557927432        1.1302313460       -3.9049031058
 H         1.4905315091        0.5820431550       -3.4418425718
 H        -1.4428361857        1.7542221947       -1.8151602956
 H        -2.1490205577        0.1592373781       -2.2053468673
 H        -1.7593403945        0.4784995159       -0.5779239761
 H         2.6698672011        1.6909640869        0.7370928242
 H         1.6316949323        1.9532374936        2.0892607715
 H        -0.1751706445        4.0080207603        4.5397280274
 H        -0.0691622498        5.6890416110        3.9007760187
 H         1.8860047190        6.5660993631        2.4790478825
 H         3.0605993388        5.5699147748        1.9075754218
 H         2.2699339129        5.0057172392        3.4201765745
 H         0.6362481327        6.1530063775       -0.3171755826
 H        -0.8282629254        5.2661960793        0.2661587075
 H        -0.1878998983        6.5145875287        1.2902428141
 H        -2.1943154419        5.8406888053        3.2527453160
 H        -2.4620961934        4.0115198486        3.5413110770
 H        -4.6134240683        2.3987482514        7.3626479243
 H        -6.0097821362        3.4532075725        7.3201663845
 H        -3.4131821104        6.2930694165        7.4583052467
 H        -3.6860637232        4.7217923725        7.8864618294
 H        -5.0801591229        5.6235661365        7.6945528359
 H        -4.9018547603        6.0508766524        3.8885721453
 H        -5.6688003905        6.3835755219        5.4869391292
 H        -4.1634377889        7.2137064910        5.0362807332
 H        -6.7341985361        2.1264792701        5.2119441370
 H        -7.1276548322        1.5662925130        6.7785516949
 H        -5.8931917707       -1.2500960133        3.0274479994
 H        -6.8770866401       -2.6148130881        3.6105090983
 H        -5.0231274595       -2.2735175104        6.6619920915
 H        -5.1039046742       -2.3373406723        4.8757618114
 H        -6.3726130302       -3.0568039602        5.7600304718
 H        -8.0999070408       -0.0630304965        6.9693026875
 H        -8.2321318515       -1.7747238261        6.8256996497
 H        -7.0386117307       -0.8812759995        7.9658699834
 H        -8.0467507666       -2.2678734974        1.5128059645
 H        -9.0214456381       -1.2393917956        2.6051421037
 H       -11.9855566969        1.4622605967        0.5276436055
 H       -10.8104403101        2.2134988969       -0.6411938149
 H       -11.8026406500        0.7463011729       -1.0388956217
 H        -9.8769380302        0.9354155667        3.0715957571
 H        -9.9396624983        2.4026801705        2.0753617489
 H        -8.3776582411        2.0053403300        2.9216338716
 H        -8.9924109436        2.9871195210        0.0484282714
 H        -7.4361538228        2.3023546756        0.2601576818
 H        -8.5182953368        1.4324487688       -0.9560726082
 Na        3.4316211905       -1.6011002623       -1.8515768566
