155

 C         8.1161843586       -1.1542170978       -2.5070396558
 C         6.6534426313       -0.9309334863       -2.2719820748
 C         6.0519687688        0.5052884013       -2.6864231600
 C         5.0855821437        0.1881259077       -4.0331344544
 C         5.6253080690        0.5964373985       -5.4115337932
 C         5.1656662830        1.0165581760       -1.4633823735
 C         7.1401899638        1.5697351035       -2.9349557075
 O         5.9541602631       -1.8147269680       -1.8491161876
 O         4.0398197635       -0.4054423137       -3.9850096140
 C         5.2987378551       -0.4698807441       -6.5732831816
 C         5.8651835828       -1.8821277056       -6.2769029170
 C         5.4304966849       -3.1741292488       -7.2598979573
 C         4.1382619379       -3.8498941450       -6.6675993093
 C         4.3155073189       -5.0863722778       -5.7767752124
 O         6.7644553601       -2.0211154689       -5.4708793438
 O         3.0078779070       -3.3321935335       -6.8696198198
 C         5.1201131269       -2.6343997849       -8.6661464968
 C         6.5978196897       -4.1057865326       -7.2418586777
 C         3.0948527679       -5.2178759259       -4.8063230381
 C         2.8910970624       -4.3016816207       -3.6788293956
 C         2.1400139688       -4.9823907533       -2.3417285885
 C         1.4444510347       -3.9015299593       -1.5197135354
 C        -0.0624122071       -3.8241253877       -1.4674719074
 C         1.1781576485       -6.1674235234       -2.7362951900
 C         3.2922181071       -5.5980718825       -1.5136712373
 O         3.1496290557       -3.1331622883       -3.6501429304
 O         2.1468454135       -3.0750609487       -0.9225159423
 C        -0.5069075500       -2.3297786732       -1.1795063936
 C         0.1247882735       -1.3255975689       -2.1946250632
 C         0.1649943824        0.1510499810       -1.9671064820
 C         1.1198483578        0.4937438300       -0.7135393827
 C         0.5663073039        1.3088664920        0.4376362961
 O         0.6571874373       -1.7274867862       -3.2143117685
 O         2.2221116738       -0.0448087545       -0.7468219175
 C         0.6137484611        0.9068293376       -3.1691916059
 C        -1.3073705031        0.5970593406       -1.7140674281
 C         1.7204405259        2.2737286896        1.0607418913
 C         1.4259233457        3.7136411783        0.5306084748
 C         0.8246538249        4.7766941988        1.5266811636
 C        -0.2561025046        3.9830922635        2.5228563824
 C        -0.6170129230        4.7356532804        3.7989903224
 C         2.0634409050        5.4948998488        2.1658443436
 C         0.0081785932        5.8190348630        0.6774731548
 O         1.8582208568        4.1534956265       -0.5236054692
 O        -0.8372046057        3.0007451489        2.1186514201
 C        -2.1765043075        4.6126874100        4.0087958873
 C        -2.5282612333        4.9503159057        5.4405421980
 C        -4.0362562676        5.0958557950        5.8165367989
 C        -4.5922140144        3.6842221050        5.4722117173
 C        -5.3903124037        2.9910760768        6.5117194121
 O        -1.6958976470        5.1441904572        6.2662890363
 O        -4.4194738226        3.2180967020        4.3177430369
 C        -3.9972651527        5.4707291751        7.2855350667
 C        -4.9056569619        6.0092479411        4.9197979337
 C        -6.3320515835        1.8555436161        6.1114900671
 C        -5.5675046027        0.4742128445        5.9138738319
 C        -6.3967436755       -0.8190923227        5.8207232653
 C        -7.3395054054       -0.6784817823        4.4792694657
 C        -7.1866423969       -1.6767171273        3.2110605925
 C        -5.4030876590       -2.0222719549        5.8310951271
 C        -7.3638105036       -0.9633134290        7.0929273871
 O        -4.3682944887        0.3511664989        5.8629144274
 O        -8.1932252101        0.1766025760        4.5146119531
 C        -8.2549952890       -1.3547650331        2.1899246060
 C        -7.9439472825       -0.0903217169        1.2792798755
 C        -8.9831109027        0.9986185104        0.9905318488
 C       -10.1645827017        0.2638846289        0.1821306384
 C       -11.4251505608        1.1359431429       -0.1098466795
 O        -6.8386417833        0.0438320415        0.8099537600
 O       -10.2045760043       -0.9123045712       -0.0719569515
 C        -9.7527536881        1.6124063935        2.2731178358
 C        -8.3370722827        2.0733898518        0.1627651676
 H         8.7273653222       -0.9470687049       -1.6080462117
 H         8.2734324103       -2.2389858637       -2.6791727693
 H         8.5017002872       -0.6529130731       -3.3088297440
 H         5.1420838618        1.5286780485       -5.8503929229
 H         6.7303692575        0.6659327637       -5.4439729815
 H         4.6716066393        2.0191353125       -1.7492997076
 H         5.7184844663        1.2729473575       -0.5782314430
 H         4.4801398456        0.2755602010       -1.0567803310
 H         7.7289099689        1.4763747878       -3.8767182956
 H         6.6978161523        2.6092069160       -2.9631190019
 H         7.8994436760        1.5983583221       -2.1325877535
 H         4.2125270798       -0.4530565500       -6.9151582469
 H         5.6744893445       -0.1238636071       -7.5527317559
 H         4.3896306597       -5.9409091094       -6.4242812527
 H         5.2440878358       -4.9744385023       -5.1632519082
 H         6.0256240011       -2.3737340324       -9.1546682283
 H         4.4645457736       -1.7470626450       -8.5012106630
 H         4.5802448732       -3.2502734677       -9.3697831978
 H         6.3830465309       -5.0132767872       -7.8046760288
 H         7.4003490364       -3.6393795013       -7.7150072554
 H         6.9764347800       -4.4875956281       -6.3728800063
 H         3.0802714609       -6.2403416745       -4.5720041205
 H         2.1664667047       -5.0297573880       -5.5077482952
 H        -0.3514064575       -3.8955851593       -2.5479018723
 H        -0.5552298153       -4.5875472321       -0.8333162498
 H         0.5406281928       -5.9127505715       -3.5607449575
 H         0.5799047867       -6.3745383259       -1.7860013817
 H         1.8785700719       -7.0347221906       -2.8624789677
 H         3.9282739864       -6.2345501958       -2.0827885132
 H         3.9970264191       -4.9488952676       -1.1425110753
 H         2.8062956592       -6.1334802291       -0.7076724000
 H        -1.6030912147       -2.3496569265       -1.2385566012
 H        -0.1660722651       -2.0631271413       -0.1352292154
 H        -0.2963907115        1.8553460048        0.1126784143
 H         0.2805429891        0.5053325931        1.1000543783
 H         0.5329913305        2.0557190992       -2.9974114595
 H         0.0530025136        0.6158772596       -4.0617260471
 H         1.6525043848        0.6727313408       -3.3156063750
 H        -1.4472147175        1.5854897581       -1.4799681860
 H        -1.9658695656        0.3316060351       -2.5498187465
 H        -1.6461232877        0.0502106960       -0.8299273131
 H         2.6959560521        1.9203254036        0.6361975777
 H         1.7091305012        2.1535317400        2.1389420150
 H        -0.1149603099        4.2331200966        4.6185858099
 H        -0.3895592481        5.8366167962        3.6731190501
 H         1.7074025058        6.3382826203        2.8211422270
 H         2.6987822880        5.9578992447        1.3550994885
 H         2.5187547397        4.8176420246        2.8963936471
 H         0.5221187484        6.0374555467       -0.2487634889
 H        -0.9629590142        5.3969180478        0.3735490651
 H        -0.2882092031        6.6978600727        1.2175313766
 H        -2.6898400500        5.4081215220        3.4511053485
 H        -2.5969444195        3.5895834371        3.7507755201
 H        -4.5956199235        2.6093768986        7.1720075376
 H        -5.9661616753        3.7902708428        7.0250285241
 H        -3.3279663620        6.3680802428        7.5062501362
 H        -3.7230573959        4.6743961403        8.0236458349
 H        -5.0203298392        5.6676496864        7.6406646784
 H        -5.1845394763        5.4749701960        3.9789816143
 H        -5.8389065024        6.2295998590        5.4312486739
 H        -4.4234763738        6.8802432746        4.6133658871
 H        -6.7730347001        2.0732646202        5.0975560538
 H        -7.1832624820        1.7609828711        6.7676589647
 H        -6.1804139004       -1.7578896426        2.9106584909
 H        -7.3914962559       -2.7193991757        3.5549087668
 H        -4.9098316201       -2.0314387641        6.7824225873
 H        -4.6408513655       -1.8192255230        5.0432659921
 H        -5.8123378997       -2.9620172281        5.5808099640
 H        -8.4019901159       -0.5495823968        7.0487327236
 H        -7.4097550717       -2.0488182096        7.1854744325
 H        -6.8456999870       -0.4867962567        7.9226454831
 H        -8.2847280727       -2.3158293341        1.6051582032
 H        -9.1705983975       -1.0710745275        2.7108705375
 H       -12.1480039213        0.9179629091        0.6741652348
 H       -11.2488670617        2.1577124499       -0.2416691444
 H       -11.8762130953        0.7472622384       -1.0620728366
 H       -10.1081687394        0.7290538617        2.8326894180
 H       -10.5548079163        2.3204665109        1.9792211820
 H        -9.0870750976        2.1386439658        2.8631079533
 H        -9.0708700106        2.8758136629        0.1507235627
 H        -7.4545997790        2.4834614018        0.7039135371
 H        -8.2106071386        1.7269346830       -0.8211256355
 Na        3.6194063397       -1.6067433108       -1.9117368235
