155

 C         8.1055966199       -1.3744504313       -2.4385085781
 C         6.6495890902       -0.9927230253       -2.1769553684
 C         6.1520539429        0.4909342106       -2.5511274897
 C         5.3610072981        0.1536113047       -3.8893454838
 C         5.9468227985        0.5622677714       -5.3284827484
 C         5.2193838415        1.2147133996       -1.5563208796
 C         7.3486517155        1.4578272377       -2.8633224579
 O         5.8291685870       -1.7197354413       -1.7054035171
 O         4.3094127355       -0.3873685196       -3.8055609533
 C         5.3619221315       -0.4413272682       -6.3781153056
 C         6.1138794418       -1.7534010794       -6.3347179058
 C         5.6691291442       -2.9823341766       -7.2277232249
 C         4.3680715254       -3.5313149082       -6.5341631569
 C         4.4349616876       -4.9139599852       -5.7929224260
 O         7.1062255755       -1.8725825695       -5.7058277165
 O         3.3066181446       -2.9742082086       -6.7292312249
 C         5.4236312295       -2.2876665749       -8.7227971658
 C         6.8980722774       -3.9091092912       -7.2327976978
 C         3.0881480140       -5.2611558915       -4.9329579155
 C         2.9574685339       -4.4907832397       -3.5791741230
 C         2.1604519386       -5.2573854134       -2.4331635065
 C         1.4990629846       -4.0478243532       -1.5840180500
 C         0.0446696390       -3.8110157990       -1.6222887186
 C         1.1971433720       -6.4697903020       -2.6607883168
 C         3.3488662437       -5.8314849016       -1.6731644413
 O         3.5509456210       -3.4935046403       -3.3708748019
 O         2.1722280757       -3.3347300895       -0.8682862626
 C        -0.3642621904       -2.3364350433       -1.4107641609
 C         0.4294660322       -1.3653106123       -2.2647122037
 C         0.3265102704        0.2249393586       -1.9351158490
 C         1.4613756201        0.5017876791       -0.7702305762
 C         0.8669843734        1.1106571308        0.4635055532
 O         1.0259125678       -1.8491511531       -3.2291666701
 O         2.5456995502       -0.0181025710       -0.8593839431
 C         0.9489791153        0.9309666371       -3.1990358259
 C        -1.1962593487        0.6567672669       -1.7420338778
 C         1.7141334591        2.4025088829        0.9506206741
 C         0.9803228575        3.6031355767        0.3234295033
 C         0.6150237010        4.7154104505        1.3912517027
 C        -0.4087752967        4.0755423249        2.5364953513
 C        -1.0132868426        4.9389522592        3.6890843439
 C         1.9822359786        5.3154913454        1.9277863558
 C        -0.0728539948        5.8834826629        0.6705994055
 O         0.7224129695        3.8130662253       -0.8327439815
 O        -0.7659910344        2.9764592846        2.2778731995
 C        -2.2704780448        4.2852400066        4.2839140881
 C        -2.7116513941        4.8913081963        5.5998101874
 C        -4.1893440458        5.1369602426        5.9446894876
 C        -4.9959784792        3.8410758789        5.5824289873
 C        -5.7664133339        3.0600221742        6.6211581469
 O        -1.8986288245        5.0184607248        6.4991907788
 O        -4.9220210297        3.4186885236        4.4417253375
 C        -4.3717095804        5.5813473217        7.3842006386
 C        -4.6866625842        6.2635404005        5.0180006573
 C        -6.4023953934        1.7878717572        6.1250402940
 C        -5.4779136972        0.5535917658        5.8937322724
 C        -6.3422113151       -0.8057674690        5.6596102931
 C        -7.4927787292       -0.5770651561        4.5110998393
 C        -7.5465260677       -1.5737340033        3.3445898667
 C        -5.2037576474       -1.8563442581        5.2334111439
 C        -7.1065893351       -1.2900243031        6.8553996720
 O        -4.2363840132        0.5679845169        5.8911907138
 O        -8.3031026046        0.3252690818        4.5022245176
 C        -8.5885474314       -1.2873484305        2.3713259838
 C        -8.1454379530        0.0096874885        1.5344388345
 C        -9.3112990003        0.9775121144        1.0825652987
 C       -10.2118459244        0.1858672968        0.0868009221
 C       -11.6562076130        0.7495439254       -0.1250987425
 O        -7.0210648823        0.1509086645        1.1675475846
 O        -9.7305018472       -0.7552276650       -0.5450917569
 C       -10.1480965233        1.5550213423        2.3101430713
 C        -8.6481597736        2.0537379849        0.2008494485
 H         8.7821400590       -0.5402854962       -2.4654969394
 H         8.5068558783       -2.0806637008       -1.6723981502
 H         8.1561640579       -1.8245732812       -3.4071873626
 H         5.6500881078        1.6457415486       -5.4420830571
 H         7.0251174617        0.4636255786       -5.4375668848
 H         4.1689686649        1.3776343674       -1.8637617303
 H         5.6692415082        2.2054611428       -1.2017750478
 H         5.0508477173        0.6743805207       -0.6027905841
 H         8.1108993370        1.1040179205       -3.6276094711
 H         6.8985260641        2.4112194600       -3.0425770742
 H         8.0100012501        1.6321892974       -1.9429091928
 H         4.2673965320       -0.6214992447       -6.0831782978
 H         5.2499576532       -0.0514730861       -7.4190668431
 H         4.8109822059       -5.6550743630       -6.4969159457
 H         5.2624820545       -4.8480601081       -5.0575002120
 H         6.2348995385       -1.6484675280       -8.9529184239
 H         4.4779875807       -1.6952804351       -8.5853082313
 H         5.2610235896       -2.9068222040       -9.5691286752
 H         6.8766585646       -4.6804338498       -7.9946657537
 H         7.7990412293       -3.3673592583       -7.3126499140
 H         7.0768696461       -4.4492912805       -6.3461313133
 H         3.0543568458       -6.2863159005       -4.8674333294
 H         2.1993042842       -4.9367232050       -5.5700319993
 H        -0.4025336343       -4.1366936549       -2.5726678174
 H        -0.3077980192       -4.3549221765       -0.7439360104
 H         0.5977320040       -6.1718798172       -3.4917090897
 H         0.4246809937       -6.4375620553       -1.9065210008
 H         1.7664762019       -7.4148017471       -2.9117060491
 H         3.8977561689       -6.5693452841       -2.2844102478
 H         4.0923158937       -5.1018149626       -1.4360345285
 H         3.0584728222       -6.1935805988       -0.6916196867
 H        -1.4509344426       -2.2085904706       -1.5806478001
 H        -0.1667257208       -2.1726022351       -0.3189899883
 H        -0.1994123086        1.3276884826        0.2931967288
 H         0.9390980950        0.3700088598        1.2526502045
 H         1.1372724390        1.8984002308       -2.8080652762
 H         0.2529809110        1.0284659687       -4.0216590034
 H         1.8570903311        0.5547205009       -3.5252892287
 H        -1.2368059417        1.6867122811       -1.5605573128
 H        -1.7757890193        0.4808225264       -2.6626788604
 H        -1.6250608448        0.2188727078       -0.8291636847
 H         2.6905960211        2.1987977489        0.5313802555
 H         1.6087510713        2.4522747659        2.0450038494
 H        -0.2415201921        4.9715113505        4.4068113821
 H        -1.2862555293        5.9245595226        3.2550665140
 H         1.8657422546        5.7957354607        2.8798840698
 H         2.3738694380        5.9013451316        1.1326607451
 H         2.7039892674        4.5939252322        2.2475970816
 H         0.6041412052        6.4654429302        0.0171718671
 H        -0.8667397982        5.5931010450       -0.0526676361
 H        -0.5415275887        6.6216785080        1.4261102366
 H        -3.1291811864        4.2579486741        3.6233132550
 H        -2.1190967451        3.1998886690        4.4458948581
 H        -5.1735319195        2.9523450140        7.4388322521
 H        -6.5839664369        3.7324374689        6.9181018382
 H        -3.5939939935        6.3049961591        7.7323339480
 H        -4.2303374768        4.7377087702        8.0714857179
 H        -5.2395711127        6.1543427940        7.6728237440
 H        -4.6123923658        5.9542745500        3.9242295165
 H        -5.7073520866        6.5535279181        5.0876369076
 H        -4.0641148699        7.1311138359        5.1537957138
 H        -6.8843804097        1.9830297287        5.1796874504
 H        -7.1912282681        1.5328087043        6.7865457701
 H        -6.5451357401       -1.5957784436        2.9313946101
 H        -7.5527619524       -2.6323971805        3.7861297276
 H        -4.3841422449       -1.8217644439        5.9623693324
 H        -4.7487204600       -1.4736587266        4.2627372907
 H        -5.5327717116       -2.8686146159        5.1924365628
 H        -7.8258393968       -0.5875403736        7.2249498636
 H        -7.6003156560       -2.2158356041        6.6014494179
 H        -6.3497403221       -1.6611631883        7.5531795682
 H        -8.7941026503       -2.0710033001        1.6600104470
 H        -9.4810881721       -1.0760922873        2.8976541161
 H       -12.2829693383        0.4182360079        0.7377751871
 H       -11.6717908469        1.7749381721       -0.2980543054
 H       -12.0499156135        0.3988945255       -1.0409363748
 H       -10.7517313726        0.6757962295        2.6562946903
 H       -10.7019855699        2.4651202655        2.0606116507
 H        -9.4093319721        1.7686503630        3.0544943293
 H        -9.4411079501        2.3341783932       -0.5300945033
 H        -8.2540471557        2.8322031825        0.8735013301
 H        -7.8535278811        1.6437771253       -0.4119731509
 Na        3.3078758783       -1.6982936212       -2.1079468330
