155

 C         8.0346484621       -1.7180075556       -2.2325945690
 C         6.7080854943       -0.9420509313       -1.9475779026
 C         6.4984190708        0.4516677993       -2.6496725376
 C         5.5438807016        0.1974275699       -4.0442145191
 C         6.1404409026        0.6370500984       -5.3727262300
 C         5.8102131989        1.3389126713       -1.5996098933
 C         7.9513339977        1.0383214574       -3.0535362365
 O         5.9081150494       -1.4894657956       -1.2686476839
 O         4.4440084801       -0.2138120670       -3.9129562741
 C         5.6236650829       -0.3295893891       -6.4723037383
 C         6.3524627910       -1.7132550051       -6.2261347489
 C         5.8911760309       -2.8543676320       -7.1357203845
 C         4.7757552559       -3.4312423363       -6.2910734675
 C         4.7701755637       -4.9073633453       -5.8104935516
 O         7.1944810926       -1.8287478476       -5.3061075497
 O         3.7327142273       -2.7637649929       -6.2506559527
 C         5.5050319773       -2.2561434970       -8.5879985000
 C         7.0353283907       -3.8423286309       -7.4187345927
 C         3.4967574147       -5.3157259239       -5.1038957156
 C         3.4217145147       -4.6235644418       -3.6854350364
 C         2.3683889747       -5.2498855243       -2.6932377967
 C         1.7289462109       -4.0997246656       -1.8807785110
 C         0.1646645771       -3.9190215922       -2.1089170491
 C         1.3472442696       -6.1591810208       -3.3744659099
 C         3.3508514221       -6.1688653743       -1.8792845439
 O         4.2119138616       -3.8470000922       -3.2179768204
 O         2.3347963444       -3.3198882802       -1.1863027054
 C        -0.3294339869       -2.4391878500       -1.8354610678
 C         0.6958373937       -1.3730518902       -2.4608514108
 C         0.6381724509        0.0001268210       -1.7937667466
 C         1.3981381460        0.1588173087       -0.5026875444
 C         0.8421641298        1.0083903356        0.6765411573
 O         1.5189188435       -1.5272614739       -3.3221188191
 O         2.5824129500       -0.1668706304       -0.4650732322
 C         1.0763405959        1.0867752395       -2.8386178586
 C        -0.8907328493        0.4404599790       -1.5196798701
 C         1.3399067758        2.4389522471        0.7280577912
 C         0.2988258558        3.4522024505        0.4250922614
 C         0.1433581356        4.6666316131        1.4366164706
 C        -0.6894116193        4.0180194213        2.5510083985
 C        -1.5906403906        4.8442995204        3.4846543103
 C         1.5516325091        5.1500316083        1.9192920066
 C        -0.7293287156        5.7712886720        0.7744967094
 O        -0.3755901491        3.2957976140       -0.5580193170
 O        -0.6513891974        2.8193240131        2.6872990478
 C        -2.6544121424        4.0337938398        4.2530950182
 C        -2.9385176313        4.7454255129        5.5856999552
 C        -4.3889021188        5.2796417804        6.0231569936
 C        -5.5095062534        4.2648394118        5.7468122427
 C        -5.7928216044        3.0695506060        6.6737329929
 O        -1.9711355650        4.9159008153        6.2822508048
 O        -6.0055829433        4.2817791642        4.5977382856
 C        -4.3613566173        5.6739810491        7.4861564582
 C        -4.7195008840        6.5092926403        5.1817258365
 C        -6.4775093621        1.8487454351        6.1186584521
 C        -5.5736619839        0.6658293295        5.8563450333
 C        -6.1259979582       -0.7543110574        5.3109861904
 C        -7.5133910555       -0.5707116475        4.5318767325
 C        -7.7798053431       -1.5220437270        3.3496097224
 C        -5.1016082933       -1.4961385615        4.4614641314
 C        -6.4990289442       -1.5163571194        6.5753064138
 O        -4.4099170552        0.6888471616        6.1773236657
 O        -8.3409156084        0.1219849987        5.0720363329
 C        -8.8684117138       -1.1400475214        2.3991162086
 C        -8.4835972924        0.2676224337        1.7483305236
 C        -9.5936553668        0.9563339089        0.9847490791
 C       -10.2762673802       -0.0512650498       -0.1266679593
 C       -11.8317190920        0.0340463615       -0.3564577524
 O        -7.3791555204        0.7410263870        1.8161489702
 O        -9.5593309985       -0.7190262900       -0.8539938796
 C       -10.6844490645        1.5840028767        2.0116065945
 C        -9.0894253658        2.1584571233        0.1134818605
 H         8.8288188678       -1.4292694467       -1.4814517445
 H         7.8315188107       -2.7898126159       -2.1414624223
 H         8.4857888745       -1.5221917054       -3.1491288167
 H         5.8998118550        1.7111495988       -5.5673779865
 H         7.2817936840        0.6893169452       -5.3560242000
 H         6.1067410275        2.4492219883       -1.6221334361
 H         5.9736318758        1.0167339890       -0.6204270990
 H         4.7321328514        1.4540697517       -1.7028965169
 H         8.3485271166        0.5281335465       -3.9221181643
 H         8.0559865361        2.1601643379       -3.3299126648
 H         8.5128403555        0.8345068665       -2.1546560017
 H         4.5472075228       -0.4243593525       -6.2582061751
 H         5.8405814548        0.2351772064       -7.4059738065
 H         5.1985224430       -5.5662394513       -6.5408227059
 H         5.5893808118       -4.9100600175       -5.0934678020
 H         6.2324583532       -1.5174131110       -8.8675567317
 H         4.5847855130       -1.7565309461       -8.6685512628
 H         5.5381687144       -3.1081400513       -9.2869894118
 H         6.7148403044       -4.7323302293       -7.9569868894
 H         7.6768571169       -3.3729728823       -8.0822189037
 H         7.6124786375       -4.1219051607       -6.6231094858
 H         3.5149201799       -6.4183003107       -5.2548574342
 H         2.6895136310       -4.9687450239       -5.7567222641
 H        -0.1868398869       -4.2699493471       -3.1109263560
 H        -0.3174648153       -4.6154470172       -1.3623990776
 H         0.8991388228       -5.5765660011       -4.2097278002
 H         0.6727627386       -6.6307296219       -2.6072542393
 H         1.7092230514       -7.0573946397       -3.7816856978
 H         3.7937182232       -6.9286813304       -2.4204428172
 H         3.9987356222       -5.5830657649       -1.3170979991
 H         2.8166773955       -6.7587341046       -1.1267334045
 H        -1.4366724398       -2.3790260194       -2.0001204128
 H        -0.2357221980       -2.2848449328       -0.7289023325
 H        -0.1546726079        0.8445168334        0.9125054762
 H         1.3514165827        0.4274514034        1.4660904309
 H         0.8863571168        2.1509063989       -2.4714666710
 H         0.5277031633        0.8798501544       -3.7476793637
 H         2.1014597885        0.9355092807       -3.0731091899
 H        -0.8839043848        1.4713912187       -1.3654430520
 H        -1.5137548770        0.2302379357       -2.3678540763
 H        -1.3203235217       -0.1378925862       -0.7200604875
 H         2.1474595400        2.4984698480       -0.0628746552
 H         1.8548365151        2.5972008211        1.6247126128
 H        -0.9878951283        5.4272263526        4.2552190818
 H        -2.0194875954        5.6504358726        2.8990935228
 H         1.5165042739        6.1908296823        2.2412008948
 H         2.3579803755        5.2134493796        1.1135993183
 H         2.0178911529        4.4328293879        2.5680808151
 H        -0.0848075711        6.4182176225        0.1185287376
 H        -1.5018667128        5.2157854608        0.1529917204
 H        -1.2013200016        6.5223685579        1.3739365156
 H        -3.5230323188        3.5965891229        3.7395004965
 H        -2.2506900971        3.0612785797        4.6518427201
 H        -4.7607643785        2.8280737794        7.2116092116
 H        -6.3897377303        3.4623382156        7.5558804656
 H        -4.0970105614        6.7372002746        7.7198101039
 H        -3.7341054058        5.0783612234        8.1973287211
 H        -5.3956210155        5.5934528745        7.8971311810
 H        -4.7812249817        6.2330443765        4.1510008206
 H        -5.6678052462        7.0061422636        5.5171514134
 H        -4.0304458135        7.2995796587        5.2007187675
 H        -6.9101842344        2.0888142403        5.1114442142
 H        -7.2887548297        1.4689748988        6.8120584747
 H        -6.8382477693       -1.5953966121        2.7718682376
 H        -8.0158870501       -2.4696977862        3.6933586894
 H        -4.2125249279       -1.5877428523        5.0778793875
 H        -4.8690979044       -0.9680223049        3.5393383073
 H        -5.4929088219       -2.5297018396        4.2454625740
 H        -7.1453066161       -0.8786740400        7.2221459604
 H        -7.0829651267       -2.4085650872        6.2578380111
 H        -5.5819817860       -1.8264224451        7.0495126704
 H        -8.9471125525       -1.9789155730        1.6161128507
 H        -9.9591318789       -1.2328289125        2.7655167545
 H       -12.4564955070       -0.3309728173        0.3960094181
 H       -12.1014320920        1.0563345611       -0.5508806724
 H       -11.9676971078       -0.5537358866       -1.3027061374
 H       -11.3603418244        0.8226855771        2.3578164049
 H       -11.3520140614        2.3302330634        1.4812224880
 H       -10.0920584652        1.9614904877        2.7979898885
 H        -9.8488597050        2.5574617261       -0.4359491625
 H        -8.6752864229        2.8775920993        0.8775137473
 H        -8.1961100274        1.8225001352       -0.3845242206
 Na        3.7576315776       -1.5593027395       -2.1978421561
