155

 C         8.0097166685       -2.1929189914       -0.9134184568
 C         6.8367089705       -1.5191240949       -1.5751433456
 C         6.9847795994        0.0555235258       -2.0031391386
 C         6.4553199723        0.2981646055       -3.4822311759
 C         7.3612842506        0.6672742096       -4.7183186110
 C         6.0290402941        0.8376250600       -0.9719731177
 C         8.3931851487        0.5771701320       -1.8986088831
 O         5.8002697603       -2.1408591990       -1.7196846493
 O         5.2839636822        0.2746392658       -3.6781171559
 C         6.9094918393       -0.0601395194       -5.9767973574
 C         7.6560662955       -1.4417459871       -6.2301385147
 C         7.1829183266       -2.4872736878       -7.3330667231
 C         6.1030016148       -3.3692849360       -6.6155273774
 C         6.4141561914       -3.9113892494       -5.3018097510
 O         8.4923132780       -1.8543596082       -5.4025423354
 O         5.0533270620       -3.6616033098       -7.1325564419
 C         6.5552317277       -1.7909713094       -8.6146404782
 C         8.4004274559       -3.4807207972       -7.7119695434
 C         5.3560995174       -4.8718180294       -4.8107738896
 C         4.2847528167       -4.1263362725       -3.9267950085
 C         3.5177498572       -5.0102740146       -2.8906096151
 C         2.4595894750       -4.0251149135       -2.2540965351
 C         1.1716848472       -3.8645784148       -3.1371832814
 C         2.9332493467       -6.2160219079       -3.5650322226
 C         4.5630204961       -5.3799593110       -1.6972337298
 O         4.2323564061       -2.9532796010       -4.0096398783
 O         2.7473552139       -3.1950716596       -1.4580325054
 C         0.2895602246       -2.7101329501       -2.7480427676
 C         0.9503087275       -1.3777909349       -2.9858648710
 C         0.3760252208       -0.1779498098       -2.2664140929
 C         0.9594538313        0.0026335237       -0.7065596109
 C        -0.0417409340        0.3507964059        0.2636372198
 O         1.7435635363       -1.3284659702       -3.9226012839
 O         2.1336213773       -0.1416830355       -0.5755711244
 C         0.8943205350        1.1381038780       -2.8869752002
 C        -1.1493306264       -0.2395378864       -2.2537130907
 C         0.2514354135        1.5597630901        1.2048857275
 C        -0.4975294930        2.7986235709        0.7617781506
 C        -0.7351541271        3.9388015047        1.8603475433
 C        -1.8537291436        3.1722273909        2.7837887000
 C        -2.2500351436        3.7196616135        4.1141563661
 C         0.5753520446        4.3255893077        2.7234516692
 C        -1.4531662411        5.2836939753        1.2342819027
 O        -0.7659268900        2.9609850472       -0.3977033902
 O        -2.0466080280        1.9967247715        2.4855675396
 C        -3.5914430744        4.5362433205        4.0955268789
 C        -3.8606165789        4.9037071865        5.5249326149
 C        -5.2454336853        5.2983141316        5.9407123395
 C        -6.0793619358        4.0105128619        6.4153744383
 C        -5.4209549442        3.0215648674        7.3706078847
 O        -2.9052840002        4.8551459806        6.3477123899
 O        -7.2505972156        3.8426282314        6.0936698340
 C        -5.1263053679        5.9994083596        7.2915542855
 C        -6.0166955197        6.1581632938        4.9047571106
 C        -6.1320228896        1.6801386688        7.0439294168
 C        -5.6977015587        1.1678385576        5.6389476668
 C        -6.0431097304       -0.2503700962        5.2285999515
 C        -7.5112989695       -0.3170812302        4.4395216243
 C        -8.0370140498        0.8721479661        3.4251296590
 C        -4.9415098052       -0.9760968976        4.3518053789
 C        -6.1921743727       -1.1034553105        6.4987199760
 O        -5.1447552034        1.9514065813        4.8810669178
 O        -8.2619731995       -1.1820137853        4.7287055991
 C        -9.4342099029        0.7576427153        3.0454937801
 C        -9.6929997334        1.3015200860        1.6125744454
 C       -10.9583387790        0.7216722480        0.7661611280
 C       -10.3389101823       -0.3069939595       -0.2437632872
 C       -10.8410491494       -0.3923970532       -1.6295379053
 O        -8.9764769054        2.1265348714        1.0892656237
 O        -9.5635191466       -1.1216304961        0.1209322780
 C       -12.0068410040        0.1013802129        1.7055176357
 C       -11.5344184832        1.9428778150        0.0017342854
 H         7.9492204038       -1.9895023556        0.1160508326
 H         7.8918027990       -3.2969853177       -1.0315110784
 H         9.0440588136       -1.8359649250       -1.1335856973
 H         7.1709057205        1.6874425977       -4.8983008728
 H         8.4013288504        0.5913192923       -4.4073733153
 H         6.3902542371        1.7958970319       -0.9465555623
 H         6.1911893946        0.4061546424        0.0789062520
 H         5.0184255208        0.5613194652       -1.1848500400
 H         9.0913662170       -0.0875738097       -2.3554236784
 H         8.4929934975        1.4928095018       -2.2776267535
 H         8.8508048502        0.5952728526       -0.9122909197
 H         5.8080126693        0.0585721429       -6.1107366070
 H         7.2289682535        0.4157899417       -6.9559560090
 H         7.3619205845       -4.5361797141       -5.3031114514
 H         6.5617064815       -3.0709909680       -4.6226916674
 H         7.2097106726       -1.6982019151       -9.4131078504
 H         6.2367746928       -0.7601270085       -8.4008559287
 H         5.6653886215       -2.3000227678       -8.9547553342
 H         8.1078536101       -4.3081006995       -8.2515020585
 H         9.0678442519       -2.8992845612       -8.3472156923
 H         8.9284121856       -3.7571100165       -6.7798893755
 H         5.8290371142       -5.8387732106       -4.3536959504
 H         4.8023063413       -5.3087101163       -5.6065926778
 H         1.3847734615       -3.8011417276       -4.1814969909
 H         0.7212994494       -4.7970476210       -2.8423023656
 H         2.2893209828       -5.8613847137       -4.3333059566
 H         2.2534981912       -6.7439521960       -2.8621027832
 H         3.7220464966       -6.7821853058       -4.0165280663
 H         5.4239503873       -5.8110865927       -2.1049495009
 H         4.8248137501       -4.4689719528       -1.2360748807
 H         3.9877388201       -5.9688995967       -1.0072437792
 H        -0.5663797793       -2.6697272098       -3.4255094631
 H        -0.0132644398       -2.7814554142       -1.7353396122
 H        -0.9859948186        0.5699764108       -0.1811855657
 H        -0.2270851666       -0.5878822358        0.9329445689
 H         1.5100968642        1.0491595251       -3.8438401022
 H         1.4985606608        1.7996262602       -2.2429741730
 H        -0.0595671320        1.6365246020       -3.2732323247
 H        -1.6545880274        0.7223908684       -2.1206662539
 H        -1.5517962445       -0.5475630918       -3.2033903354
 H        -1.5001868374       -0.9133018298       -1.5041281165
 H         1.3600726767        1.7590310963        1.1153334555
 H         0.0430424919        1.3616496587        2.2812584596
 H        -2.5467419127        2.9415232475        4.8370652409
 H        -1.6302224649        4.4830282140        4.4119471630
 H         0.3606196805        5.3497433874        3.0763587321
 H         1.4317198389        4.4618201912        1.9811650777
 H         0.6487251547        3.6538122887        3.5730079100
 H        -0.7304812103        5.6893028656        0.5748144201
 H        -2.2991610022        5.1379164591        0.6342942519
 H        -1.6507616990        5.9639674044        2.1154634120
 H        -3.5232909658        5.2819426495        3.3038942640
 H        -4.3859991510        3.8521480343        3.8118256596
 H        -4.4062935244        2.9181997566        7.2585773361
 H        -5.5530955876        3.2699856302        8.3969108464
 H        -4.4660012622        6.8967072849        7.1004554813
 H        -4.6977269175        5.2579193548        8.0148883785
 H        -6.1338523355        6.1489623875        7.6492538313
 H        -5.7381775434        5.9248680317        3.8357559517
 H        -7.0915470542        5.9295135580        5.0715518447
 H        -5.7307143509        7.1499657416        5.0440835410
 H        -7.1755339073        1.6937655001        7.1193106223
 H        -5.8660261079        0.9992129715        7.8022895891
 H        -7.6911281779        1.8058927722        3.8802002009
 H        -7.3361644398        0.8830788646        2.5398960348
 H        -4.0043297558       -0.8050824273        4.8906243196
 H        -4.8117630736       -0.3897782580        3.4194992793
 H        -5.0368729056       -2.0475898896        4.0363168408
 H        -6.9689439647       -0.6875266194        7.2161169692
 H        -6.5658310495       -2.0376491280        6.0127457546
 H        -5.3439593974       -1.2447951338        7.1493109288
 H        -9.7578124277       -0.2704469998        3.1340059349
 H       -10.1065994031        1.2568550228        3.6863588301
 H       -10.0351460407       -0.9170866750       -2.2714096681
 H       -11.7725431710       -1.0366075515       -1.7186411581
 H       -11.0039581713        0.5865576184       -2.0812576938
 H       -11.7373365853       -0.5874862381        2.4871935479
 H       -12.7622914739       -0.4674137356        1.0571418309
 H       -12.6209606533        0.8290142615        2.1256939822
 H       -12.4778737069        1.9151142477       -0.5452433461
 H       -11.7768086834        2.7007086847        0.7489106593
 H       -10.8315893621        2.2502409536       -0.7157960094
 Na        3.6718741278       -1.2300000055       -2.4909752958
