155

 C         7.8127413670       -1.5064319459       -0.4230554127
 C         6.6213234106       -0.6728459114       -0.8326031439
 C         6.8782254130        0.6810896308       -1.4552082414
 C         6.6838786100        0.2994557638       -3.0100938084
 C         7.9830112889        0.2281214976       -3.8851663190
 C         5.7983524802        1.7332791398       -1.0955454490
 C         8.3591976212        1.2288323741       -1.2446219035
 O         5.4896297845       -1.1102311315       -0.6933799600
 O         5.5476402916       -0.0056321203       -3.4207103734
 C         7.5519862692       -0.0546791293       -5.2972783091
 C         8.1625481077       -1.4197675113       -5.8638552563
 C         7.5393559230       -2.2514684983       -7.0681264277
 C         6.3279075440       -2.9862346706       -6.4143171098
 C         6.4759253104       -4.2924917781       -5.6922837604
 O         9.1685234881       -1.9440191471       -5.3134346531
 O         5.2010838291       -2.4997578035       -6.5274129502
 C         7.0029643392       -1.2987383185       -8.0861985818
 C         8.5298578046       -3.2504565648       -7.6398775767
 C         5.2495529092       -4.8364224035       -4.9986182593
 C         4.5866796173       -4.0586677495       -3.8267046555
 C         3.8333482019       -4.9470543734       -2.8362290837
 C         2.5726017794       -4.0464622385       -2.5675827232
 C         1.3224005723       -4.2874212440       -3.4195272973
 C         3.3754367176       -6.3790801960       -3.5478067367
 C         4.7101359049       -5.2819300111       -1.5263644289
 O         4.6290559618       -2.8292190391       -3.7323480723
 O         2.5755194831       -3.0955743934       -1.8288862685
 C         0.3685048826       -3.0918857732       -3.3084628101
 C         1.0502379963       -1.5468083506       -3.6232994702
 C         0.1934551905       -0.3460412016       -3.0851240009
 C         0.9282379058        0.1079395271       -1.6066644162
 C        -0.0999294875        0.1833826289       -0.5784867805
 O         2.1568856408       -1.4842322314       -4.0942718383
 O         2.1133830821        0.4636968855       -1.4823171818
 C         0.4830274861        0.8137995057       -4.0710566910
 C        -1.3342525332       -0.6388807323       -2.9068810915
 C         0.4033752454        1.0644974866        0.6586612117
 C        -0.2926563248        2.4666810093        0.7666767863
 C        -0.4051036007        3.2656530572        2.0871829272
 C        -1.9224562497        2.7639882360        2.8151250968
 C        -2.1944459940        3.3961781693        4.1468133264
 C         0.8077852740        3.0161117792        2.9681088094
 C        -0.5858667157        4.6860093521        1.5913121228
 O        -0.9109942529        2.7869317622       -0.1876741462
 O        -2.5964013921        2.1238779181        2.0521053754
 C        -3.5357471065        4.1029974692        4.1069430977
 C        -4.2183355840        4.3707991997        5.4282918771
 C        -5.6831327499        5.0192917440        5.5875445771
 C        -6.6683601996        3.9637989377        6.2229734309
 C        -5.9887357185        3.1065719834        7.3428036736
 O        -3.4531128229        4.2892212877        6.4232110759
 O        -7.8668653561        3.9120046324        5.9862250563
 C        -5.5067954804        6.3218174206        6.4490937054
 C        -6.3267704956        5.4483694713        4.1893081473
 C        -6.1059479797        1.5381056545        7.1036215058
 C        -5.7450428799        1.1389680563        5.7350271620
 C        -6.2309059731       -0.2270854026        5.1241511646
 C        -7.7256147579       -0.0215898173        4.8790528697
 C        -8.1758003340        0.5597720097        3.5282768505
 C        -5.4652914121       -0.4170279602        3.7776529746
 C        -5.8920550888       -1.4114441599        6.0511157722
 O        -5.1799189676        1.9273438611        4.9749544855
 O        -8.5159703125       -0.1638064245        5.7685645794
 C        -9.5304353041        0.0626076402        2.9668587428
 C        -9.9617329509        1.0771037677        1.9424278906
 C       -10.9828299136        0.7631476641        0.7548902378
 C       -10.3150612613       -0.2821308712       -0.1777119366
 C       -10.3161017593        0.0363423907       -1.6206558926
 O        -9.4941723445        2.1781102895        1.9737665877
 O        -9.9138210518       -1.2829841637        0.3153005359
 C       -12.2986716775        0.1052859315        1.3632002868
 C       -11.3944643874        2.0245108979        0.0170505748
 H         7.5107512683       -2.5223846890       -0.5369126302
 H         8.8405430111       -1.2976819235       -0.8222283546
 H         8.0180888295       -1.3732659114        0.6587330590
 H         8.4747709763        1.2052329561       -3.7460670246
 H         8.6420799889       -0.5229697340       -3.4928372050
 H         5.5951973598        2.3061551446       -1.9485485997
 H         6.3152948484        2.3562038899       -0.2704536577
 H         4.8721372070        1.2170141016       -0.9008421939
 H         9.0674991813        0.5088937934       -1.5743539892
 H         8.5711039641        2.0296780442       -1.8526890681
 H         8.7042628136        1.6061624279       -0.2843226603
 H         6.4275934578       -0.1462735825       -5.4610880307
 H         7.8583141411        0.7544823753       -6.0130713463
 H         6.9065678355       -5.1020318178       -6.2369311524
 H         7.3324447801       -4.2009926128       -4.9739098443
 H         5.9550128318       -1.0548995982       -7.8869769279
 H         6.9938659311       -1.7174259255       -9.0612646561
 H         7.5612767106       -0.3665392852       -8.1175884159
 H         8.1030725086       -3.8668872265       -8.3383677245
 H         9.2678258691       -2.7129882304       -8.2003528038
 H         8.9965790830       -3.8471515131       -6.8587762093
 H         5.6033188068       -5.7809341999       -4.7184942393
 H         4.3362918771       -4.8639791782       -5.7186147087
 H         1.3893950752       -4.4883387758       -4.4854675874
 H         0.8253490117       -5.1490892497       -2.9672517742
 H         3.2036013196       -6.2810286641       -4.6275184499
 H         2.6118171647       -6.8578676358       -2.9404788008
 H         4.2160371686       -7.0204201818       -3.4802839448
 H         5.6186427407       -5.7555538725       -1.7883120447
 H         4.8416076361       -4.3249471237       -1.1176718433
 H         4.2529841959       -6.0214923387       -0.8298303435
 H        -0.3780685183       -3.3431784552       -4.0447353440
 H        -0.1930546907       -2.9993450658       -2.3983747427
 H        -1.0222262503        0.6918212936       -0.9484365142
 H        -0.3213479674       -0.8088041652       -0.1819680486
 H        -0.4829591074        1.2473364468       -4.4718921572
 H         1.2263268850        0.5332993049       -4.8609649591
 H         0.8549022325        1.6646540944       -3.3890214245
 H        -1.7826022668        0.2761384548       -2.6776599393
 H        -1.8103487663       -1.0785031525       -3.7636246553
 H        -1.5548158126       -1.3372879379       -2.1268837217
 H         1.5103768761        1.1838816461        0.5888479611
 H         0.2350133057        0.6175120654        1.6975657176
 H        -2.0444337019        2.6653018422        4.9407584069
 H        -1.3958369433        4.0649556620        4.4422850471
 H         0.7878819268        3.5171297504        3.9546657975
 H         1.6994601672        3.5183082676        2.4649156679
 H         1.1107330459        1.9542567058        3.0021756072
 H         0.3622032664        5.1386824049        1.2048545288
 H        -1.3922519477        4.6859512017        0.8796554094
 H        -0.8896182195        5.4098861085        2.4015033848
 H        -3.4873541091        5.0264879364        3.5357163616
 H        -4.1363974782        3.4734349401        3.4299160778
 H        -4.9354943592        3.4243104750        7.4387281401
 H        -6.6022944419        3.3892793441        8.2356770880
 H        -4.7657399771        6.8865237477        5.8352111218
 H        -4.9663856442        6.2339571210        7.4431065725
 H        -6.5215625579        6.7485577880        6.3799008929
 H        -6.2045028942        4.7044767912        3.4318331138
 H        -7.4427899490        5.5764725112        4.4048052451
 H        -5.9041468386        6.4076330601        3.9127554907
 H        -7.0442080959        1.2911123844        7.3816485930
 H        -5.3672007742        1.0809990982        7.7135529023
 H        -8.3996453913        1.6161919959        3.6124193449
 H        -7.5570942013        0.3811573318        2.6545272379
 H        -4.3604787557       -0.5697012049        3.8152208022
 H        -5.5458156921        0.4939380011        3.2196833902
 H        -5.9672400136       -1.2386793886        3.1841681636
 H        -6.6707787718       -1.4961234543        6.8200761754
 H        -5.9290978790       -2.3972215674        5.5871644828
 H        -4.8763412300       -1.2237964335        6.3496402358
 H        -9.3701339768       -0.9223868112        2.4162572555
 H       -10.2092064957       -0.0717689681        3.8247390329
 H        -9.4549626776       -0.6303103747       -2.0234818760
 H       -11.2616276532       -0.3828983426       -2.0728514871
 H       -10.1090035827        1.0254889817       -1.9810911908
 H       -12.0271323785       -0.6934251924        2.0022905481
 H       -13.0329412092       -0.2413232820        0.5664457251
 H       -12.9102800138        0.8434103291        1.8631630963
 H       -11.8695038568        1.8339328392       -0.8864146115
 H       -12.2149276737        2.6182574114        0.5414995402
 H       -10.5752739262        2.7559635473       -0.0419194099
 Na        3.7541003406       -1.0045783053       -2.3150215079
