155

 C        -2.8563925849       -9.4597856341        3.9133847503
 C        -2.1614583572       -8.1878224559        3.4178989817
 C        -0.9187492293       -8.2864713360        2.4202149577
 C        -0.7371303473       -7.0346407982        1.5710225228
 C        -1.9002919540       -6.7870032749        0.5155382126
 C         0.2838634303       -8.4737266087        3.3103640667
 C        -1.1573289536       -9.5476218644        1.3761715276
 O        -2.5058671933       -7.1030676468        3.7822587190
 O         0.2898226308       -6.4087676939        1.5374891475
 C        -1.7235430625       -5.6310005765       -0.4857435068
 C        -2.6562128736       -5.6619508468       -1.6951562802
 C        -2.8486080299       -4.3393282119       -2.4482943955
 C        -1.5710879464       -3.5171617297       -2.4487696586
 C        -0.6712326241       -3.2326214815       -3.7641110402
 O        -3.1366086976       -6.6745556943       -2.1359073901
 O        -1.2231083070       -2.8307660274       -1.4677620029
 C        -3.1948537598       -4.6814609291       -3.9831882433
 C        -3.9109502351       -3.3821747596       -1.8090832419
 C         0.7175525917       -2.6284781735       -3.1621645933
 C         0.4600306577       -1.1761390069       -2.4634970302
 C         1.4321063039       -0.8783714922       -1.2182120731
 C         2.2267349241        0.3249526414       -1.7098374000
 C         3.6334587605        0.1766980906       -1.9543436222
 C         0.5053695381       -0.4715111164       -0.1040297487
 C         2.4440181289       -1.9646584227       -0.7014260434
 O        -0.4437700260       -0.3892697129       -2.8447612856
 O         1.6911868152        1.4372825902       -1.6718264103
 C         4.2521010185        1.0853433938       -2.9791896363
 C         3.9220108740        0.5015685479       -4.3335244218
 C         4.2655667716        1.3025459330       -5.7927155027
 C         2.8673104462        1.8694716640       -6.2496963538
 C         1.7819015353        0.9120778901       -6.6910191638
 O         3.4002730969       -0.5900497790       -4.4038066178
 O         2.6942108317        3.0549843362       -6.2902122447
 C         5.2486633662        2.4478634973       -5.5108913435
 C         4.8431709384        0.2732721441       -6.7843393927
 C         0.6169279587        1.7615520167       -7.0032366113
 C        -0.1078390746        2.2279798106       -5.6854528545
 C        -1.3610117523        3.2911647710       -5.8299532917
 C        -2.0608158089        3.4595739645       -4.4071815541
 C        -2.6841210783        4.8281989764       -4.0499601803
 C        -0.9267937445        4.6870537832       -6.5296447636
 C        -2.3611130068        2.7648729701       -6.8352426955
 O         0.3870096344        1.8447138473       -4.6556138472
 O        -2.2702572213        2.4887862861       -3.7492011615
 C        -2.9864905250        4.9655872647       -2.5883067369
 C        -1.7557277729        5.0001236467       -1.8177587519
 C        -1.7929244826        5.3472689837       -0.2757384771
 C        -1.4286720439        3.9744928545        0.4628523753
 C        -1.8502938640        3.9205450914        1.9649277737
 O        -0.6750872906        4.7505102722       -2.3662115951
 O        -1.1159207235        2.9710454960       -0.1956748666
 C        -0.6467766370        6.2457054162        0.1523464956
 C        -3.1748052047        5.9336864758        0.2094381303
 C        -1.0127883463        4.5127067654        3.1316669505
 C         0.4166694068        4.1386586147        2.9806696403
 C         1.1925087738        3.5705890699        4.1848342784
 C         0.5999090755        2.0969009913        4.3200708933
 C         0.7252282362        1.2824494333        5.6219126284
 C         2.7383719555        3.3272113185        3.8851842047
 C         1.1115365466        4.4140675530        5.4502222112
 O         1.0018485447        4.3354202173        1.9092412077
 O        -0.0875376825        1.7407103678        3.3935176173
 C        -0.5508710555        1.1593111942        6.3945278081
 C        -0.2323644945        0.3792038403        7.7743788823
 C        -1.3589882066       -0.1238754563        8.6014643038
 C        -2.3308363707        1.0168458428        9.0499894106
 C        -3.2728971234        0.6729768320       10.1609692137
 O         0.9282222271        0.1836069392        8.0604111096
 O        -2.4003889374        2.1165620478        8.6204310720
 C        -2.2783798355       -1.0807654310        7.7002734464
 C        -0.8874799466       -0.8378304082        9.8310618374
 H        -2.5943887411       -9.6234442877        4.9666992692
 H        -3.9716417297       -9.3731524119        3.9723315131
 H        -2.5687800012      -10.4091348909        3.4843771446
 H        -1.8764979912       -7.6158388964       -0.2691938697
 H        -2.8373351694       -6.7755495160        1.0674921452
 H         0.7003868922       -7.5302190641        3.6739785832
 H         1.1089032920       -8.9444398481        2.7278609768
 H         0.0856823443       -9.1859608303        4.1300312642
 H        -2.1840410839       -9.6788460741        1.2421880010
 H        -0.8467739075       -9.4041592453        0.3872938292
 H        -0.5354531000      -10.3717911917        1.6469285603
 H        -1.8674260432       -4.6555351174       -0.0284802633
 H        -0.7196913952       -5.6752599081       -0.7514940939
 H        -0.3182037821       -4.0653659049       -4.3352824931
 H        -1.1582768088       -2.4793350117       -4.3891634143
 H        -2.7798475105       -3.9992419606       -4.7330325445
 H        -4.3051666400       -4.4840282312       -3.9532497913
 H        -3.0664416834       -5.7760343398       -4.0490074145
 H        -3.7843144140       -3.3300577332       -0.7635080904
 H        -3.8489142750       -2.3675921927       -2.2027678257
 H        -4.9061329614       -3.7833769997       -2.0545588978
 H         1.3035612547       -2.6619177986       -4.0516262555
 H         1.0444457471       -3.3630750133       -2.3850217851
 H         4.1657265384        0.3237174011       -0.9977493537
 H         3.7753368638       -0.8634676560       -2.2114482214
 H         0.0798020105        0.5663014361       -0.2242542980
 H         1.0558586609       -0.3691437267        0.9021080783
 H        -0.2775297379       -1.1747822946        0.0145062608
 H         1.9502020521       -2.9472962258       -0.4819841408
 H         3.2277807061       -2.2189142957       -1.3315569083
 H         2.9670356098       -1.6364832409        0.1951463825
 H         3.8967415730        2.1233013280       -2.8815890201
 H         5.3489894981        1.0806333825       -2.9817468090
 H         2.1066526115        0.4596621175       -7.6191436757
 H         1.6048538983        0.0752863965       -6.0550334536
 H         5.0009610625        2.9771287198       -4.6477855676
 H         5.3212578691        3.1358373365       -6.3509326674
 H         6.2339888641        2.0895668822       -5.2647405547
 H         5.9288671173        0.4021501299       -6.8549058535
 H         4.6099043373       -0.7425581349       -6.6677841210
 H         4.4780470746        0.4782182554       -7.7958803056
 H        -0.1457545622        1.3953794551       -7.6526656402
 H         1.0712499332        2.6883954543       -7.4230324433
 H        -1.9959938459        5.5619883542       -4.3749394155
 H        -3.5462035447        4.9962969176       -4.6326965437
 H        -0.0086659341        5.1623015856       -6.2023988519
 H        -1.6809843895        5.3794759171       -6.3514557760
 H        -0.6965503388        4.4839732079       -7.5727032007
 H        -3.2737034155        3.3815143631       -6.8490788155
 H        -1.9701894748        2.6022264728       -7.8272530999
 H        -2.7654043326        1.8580802155       -6.4091711487
 H        -3.6214459596        5.7946750410       -2.5712186420
 H        -3.6010672371        4.2142669270       -2.0917479362
 H        -2.8762900337        4.0925379838        2.1313163003
 H        -1.9411109782        2.8493566208        2.1706539151
 H         0.1822490286        5.8660612306       -0.4427651191
 H        -0.3849441719        6.1051984759        1.2452189897
 H        -0.7302582003        7.2683198471       -0.1202133150
 H        -3.0289668491        5.9433497619        1.3479260112
 H        -3.3876001981        6.9051786834       -0.0697496873
 H        -4.1268311897        5.4083768739       -0.0874254890
 H        -1.5252743746        4.1999448252        4.0614245003
 H        -1.2205146505        5.6705367659        3.0669974342
 H         1.0628563224        0.2860396666        5.3469653252
 H         1.5420803443        1.6284375338        6.2849448096
 H         2.8303599564        2.8215513238        2.9452285512
 H         3.1324932568        2.6463752360        4.5948189266
 H         3.4357575128        4.1376541150        3.9747867446
 H         1.5252383829        3.8701842016        6.3533295201
 H         1.6248754783        5.3207539137        5.3360259834
 H         0.0968763732        4.7656468855        5.7504083077
 H        -1.0139277665        2.0963945388        6.5869041010
 H        -1.1965963608        0.5178239534        5.7982795194
 H        -4.1443197601        1.2889355669       10.1281862314
 H        -3.5744050754       -0.3659868008       10.0952206344
 H        -2.8287353101        0.7635829969       11.1784582654
 H        -3.1235292372       -1.3872194149        8.3497184740
 H        -1.6744092491       -1.9961624810        7.6115414430
 H        -2.7374984962       -0.6042959696        6.8208964025
 H        -1.6770568245       -1.2312375196       10.4562447777
 H        -0.3755520691       -1.7458662167        9.5916761671
 H        -0.3393134016       -0.1788480762       10.4755754167
 Na       -0.5747526038        1.9453698494       -2.2185911803
