155

 C         6.7985396977        0.2646762005        0.7276054881
 C         5.7774561830        0.3111656164       -0.3528307935
 C         5.4712230529        1.7654708492       -1.0583392944
 C         5.6628028398        1.4206091389       -2.6182578101
 C         7.1076116759        1.6497849398       -3.1137714222
 C         4.0300086164        2.1414214735       -0.7206113658
 C         6.5104025952        2.8618341647       -0.5738343981
 O         5.1052125431       -0.6900094101       -0.6348719977
 O         4.9133822331        0.8093482910       -3.3205718783
 C         7.4538790884        0.9554127220       -4.4134869858
 C         7.9481890397       -0.5155859180       -4.1079230956
 C         8.1288359975       -1.4691478816       -5.4007518034
 C         7.3411565100       -2.7843229192       -5.1647525574
 C         7.7793547015       -3.7307261929       -4.0468492867
 O         8.0575441739       -0.8781179217       -2.9206605944
 O         6.3205570401       -2.8589868207       -5.7566162275
 C         7.6466031270       -0.7991584290       -6.7573841220
 C         9.7109878251       -1.5494960431       -5.3390481024
 C         6.6113053738       -4.7213703156       -3.7425052784
 C         5.3503477723       -4.0660756698       -3.1351359662
 C         3.9988250721       -5.0727534697       -3.2131240861
 C         2.8211371408       -3.9643603676       -3.0894275925
 C         1.8047000918       -3.7361202210       -4.3321195903
 C         4.0135398305       -5.7904395535       -4.5051358831
 C         3.8079360559       -6.1373486459       -2.1487423595
 O         5.3227615079       -2.9729576595       -2.6074707502
 O         2.7004360909       -3.2950243307       -2.1548983644
 C         0.8726537933       -2.5564920929       -4.2258878016
 C         1.6730117086       -1.3101036805       -4.2849767371
 C         0.8041495231        0.0750885174       -4.0784440192
 C         0.6428548523        0.1930207090       -2.5074330890
 C        -0.6596017235        0.7439103687       -1.9771939837
 O         2.8498066042       -1.3321340557       -4.4865213671
 O         1.6579408335       -0.1176680789       -1.8851889273
 C         1.6875062802        1.3846078484       -4.4331682973
 C        -0.5170337792        0.0001678360       -4.8834068037
 C        -0.6819161639        0.6552485402       -0.4487494944
 C         0.1683354551        1.6575685333        0.2553073620
 C        -0.0644137993        1.7540991891        1.8490107733
 C        -1.6242659593        2.0196663329        2.2537630941
 C        -1.8371933977        3.3842903347        2.8641590073
 C         0.2954376755        0.2784098540        2.4179398494
 C         1.0088704709        2.6414796892        2.4504871730
 O         0.9061841116        2.4080748097       -0.2437337662
 O        -2.4402002533        1.2830046206        1.7894395647
 C        -3.3825136901        3.6315422157        3.0387815471
 C        -3.7567304531        4.5443312501        4.1749819557
 C        -5.2378102433        4.7502066102        4.6378331169
 C        -5.8933204287        3.4139818864        5.0047276880
 C        -5.5745355558        2.7308747988        6.3468041281
 O        -2.8813159088        5.3441408362        4.5218184404
 O        -6.8226557754        2.9314564296        4.3151717755
 C        -5.2055488175        5.6336948038        5.8676875283
 C        -5.8405467859        5.3196234592        3.3977916278
 C        -6.5440525244        1.5604935819        6.5650860361
 C        -6.2626359481        0.2648259434        5.8164008701
 C        -7.3425877422       -0.8120081951        5.9341753292
 C        -8.6771807864       -0.1823282927        5.4521613709
 C        -8.6913386197        0.2805833174        3.9554289852
 C        -6.9609773780       -2.0886600696        5.0903587029
 C        -7.3915099726       -1.3294346692        7.4650135710
 O        -5.2383507048        0.2540988508        5.1345778726
 O        -9.5385164225        0.1570771989        6.2436786310
 C        -9.9977702761       -0.2112309497        3.1564418066
 C       -10.0035505566        0.6298991648        1.8622319400
 C       -11.2229440401        0.4437974223        0.9568643353
 C       -10.6981757546       -0.1301105014       -0.4214799002
 C        -9.7572423572        0.7630738886       -1.2310278944
 O        -9.1048383741        1.3875688247        1.4698522720
 O       -11.1007237123       -1.2404132275       -0.7694776232
 C       -12.3593549372       -0.4354013348        1.5640862808
 C       -11.8778041512        1.8186092211        0.5607471092
 H         6.7296762509       -0.6796177938        1.1823875485
 H         7.8780028464        0.1881464604        0.4087137995
 H         6.5992465619        1.1133692830        1.4646099536
 H         7.3488392045        2.6613046628       -2.9912371569
 H         7.6516993185        1.1755103976       -2.3457383953
 H         3.6500228512        2.9229365299       -1.3240782994
 H         3.8580355990        2.5380829059        0.3503850411
 H         3.3895935739        1.3449266551       -0.9111133802
 H         7.5182635166        2.4210066372       -0.4662075797
 H         6.5297646600        3.7000779911       -1.1325726968
 H         6.3186918038        3.1598167087        0.4935729898
 H         6.6901775798        0.9351149303       -5.1912880657
 H         8.2500187330        1.4568614416       -4.9883216987
 H         8.7592782609       -4.1405441577       -4.3877236981
 H         8.0590097730       -3.1498658991       -3.1636189623
 H         6.6631299151       -0.2118643080       -6.6725287127
 H         7.5795143089       -1.5973145663       -7.4767587346
 H         8.4063398085       -0.1584783589       -7.1383667121
 H        10.1348732876       -1.8094631560       -6.2907162423
 H        10.0792031694       -0.5341791334       -5.0171639074
 H        10.1258941425       -2.3124815114       -4.5887781563
 H         6.8311322918       -5.6269107452       -3.0426883719
 H         6.4257082824       -5.3558578010       -4.5463775556
 H         2.4831520618       -3.7508234740       -5.1786229584
 H         1.1799649359       -4.5899844267       -4.3415027578
 H         3.9293042431       -5.1921929543       -5.3997692284
 H         3.1800100098       -6.4780570391       -4.6134672613
 H         4.8255062930       -6.5652344491       -4.4795043332
 H         4.5045495976       -7.0103177974       -2.3147199303
 H         4.0499681155       -5.7590465793       -1.1165581824
 H         2.7352713603       -6.5996670514       -2.0668404123
 H        -0.0033340089       -2.6015799315       -4.8590856159
 H         0.4929099171       -2.6479501617       -3.2442140162
 H        -0.6573932477        1.7334997785       -2.4286011592
 H        -1.4938294375        0.3086013639       -2.6113458508
 H         2.7151434840        1.0605150083       -4.4466483898
 H         1.6275045431        2.1696996517       -3.7661523006
 H         1.4401407582        1.9367061975       -5.3796795095
 H        -1.1124677367        0.8754260351       -4.8567075713
 H        -0.1401494034       -0.1849395989       -5.9215117325
 H        -1.1944602126       -0.9128025613       -4.6811467405
 H        -0.4701792158       -0.4110533987       -0.1766931971
 H        -1.7566989336        0.7184832875       -0.0371338565
 H        -1.3060787682        3.5276496026        3.8555196153
 H        -1.3237657928        4.0420684088        2.1838922061
 H         0.4582820192        0.3277133477        3.5017431544
 H         1.1435267123       -0.1703654080        2.0113238084
 H        -0.6205515833       -0.3369220192        2.4361382874
 H         1.9470027117        2.2573628420        2.0266077640
 H         1.0396673138        3.6461615864        2.0503139051
 H         0.9912590507        2.6033481657        3.5327827970
 H        -3.8395579761        4.1127258779        2.1717199198
 H        -3.9011607436        2.7080334093        3.1919425014
 H        -4.5859791642        2.1951995480        6.4358085469
 H        -5.7121284331        3.4480301946        7.1955377718
 H        -4.7422255591        6.5327683440        5.6144227735
 H        -4.7203484788        5.1370829516        6.6631170333
 H        -6.1732348354        5.9291006813        6.2224557671
 H        -5.2285720929        5.9539682188        2.8504046976
 H        -6.2248215674        4.5687891388        2.6806790103
 H        -6.6910701595        5.9264136789        3.7486964990
 H        -7.5126588778        1.9096079927        6.1638568159
 H        -6.6555879015        1.4033985637        7.6707952847
 H        -8.7897710693        1.3640756326        3.9414590609
 H        -7.7336002530       -0.0623244188        3.5698843018
 H        -6.1433798123       -2.5957446407        5.6249313370
 H        -6.6105541924       -1.7894709367        4.0750039123
 H        -7.8029202434       -2.7382523545        4.8691007965
 H        -7.5866602594       -0.5594171909        8.2146102866
 H        -8.0550937195       -2.1946467917        7.5256022169
 H        -6.3930110191       -1.8420849985        7.7167945889
 H        -9.9632400178       -1.3438083626        3.0174789973
 H       -10.8604982100        0.0324074667        3.9178164550
 H        -8.7251572182        0.3936519189       -1.2610131728
 H       -10.1640350629        0.6887780868       -2.1913082754
 H        -9.7253326895        1.7522957262       -0.8816909472
 H       -12.1403257437       -1.4744101152        1.7599618159
 H       -13.1113241996       -0.5612157780        0.7914979366
 H       -12.7410065205        0.1490815258        2.5117556556
 H       -12.2010053808        1.7619328524       -0.4916124138
 H       -12.6564776876        2.0376060399        1.2371058692
 H       -11.1542044503        2.6745959231        0.6799184853
 Na        3.7624608108       -1.1124074081       -2.4691801890
