155

 C        -2.9120344672       -9.2631101111        4.0045107496
 C        -2.0553201489       -8.1776436648        3.3998870806
 C        -0.9262089128       -8.4813028012        2.2928837674
 C        -0.9927194935       -7.2124766107        1.3311347782
 C        -2.2291675518       -6.8390216543        0.5336424182
 C         0.3753293321       -8.6299919444        3.0989220198
 C        -1.2249323030       -9.7422283498        1.5259673773
 O        -2.2635489372       -7.0360545898        3.8343653338
 O        -0.0299734053       -6.4744813174        1.3858701538
 C        -1.9371168184       -5.4616978960       -0.2089256914
 C        -2.5076765572       -5.5533467401       -1.6227012325
 C        -2.9243083538       -4.3033324814       -2.4812461334
 C        -1.5454577317       -3.3692369402       -2.3847120423
 C        -0.7544596178       -3.1079898412       -3.6636641185
 O        -2.9973977260       -6.6226394141       -1.9864077117
 O        -1.2086255284       -3.1116812111       -1.2593235609
 C        -3.4998242362       -4.6697659099       -3.8763764182
 C        -3.9856492969       -3.5518415412       -1.7575232320
 C         0.6315888197       -2.5232278756       -3.2430304347
 C         0.4169727499       -1.2089912283       -2.4371182188
 C         1.3214803276       -0.8221397333       -1.1232897560
 C         2.1831378094        0.3916804083       -1.6665960312
 C         3.7177236025        0.4035314001       -1.8286727347
 C         0.2884580723       -0.4625729035        0.0601666574
 C         2.0253443290       -2.1492915868       -0.6319293421
 O        -0.4615940856       -0.4542870334       -2.7708021753
 O         1.6929572428        1.4763785404       -1.8722862907
 C         4.1680083306        1.0592580980       -3.1428248135
 C         3.9919927565        0.3155095070       -4.5409059596
 C         4.3683766411        1.2316804782       -5.7609206496
 C         2.9989079883        2.0189065705       -6.0836608215
 C         1.8551853504        1.0983275943       -6.6600995617
 O         3.5094759516       -0.7832235645       -4.6407047023
 O         2.8984161090        3.2309484534       -6.0396369244
 C         5.4531357137        2.2525919885       -5.5104310064
 C         4.7175879443        0.3278456712       -6.9436146993
 C         0.4627587924        1.7416125698       -7.0228933329
 C        -0.3167450028        2.3368426686       -5.8211690050
 C        -1.5024946198        3.3111896090       -6.0064245739
 C        -2.1986093911        3.4150868575       -4.5810460844
 C        -2.7229105215        4.8375865941       -4.0743362312
 C        -0.9254228917        4.6353161764       -6.5642763893
 C        -2.5493728345        2.5102378033       -6.9031672224
 O         0.0643853161        2.0455621549       -4.7237089103
 O        -2.3509871027        2.3903419866       -3.8903900719
 C        -2.9678948946        4.9183440357       -2.5376849080
 C        -1.7164429495        4.9947083002       -1.6637559606
 C        -1.7372426343        5.3183538769       -0.1181759578
 C        -1.5570760157        3.8501115519        0.6778319118
 C        -1.7925729204        3.6919735958        2.2474702340
 O        -0.6415929343        4.7727084767       -2.1866859093
 O        -1.4351233293        2.8377089260        0.0448854974
 C        -0.5865767621        6.3200120300        0.1371470342
 C        -3.1010982609        5.9849208111        0.3098524261
 C        -0.8857781566        4.6212532295        3.1249051530
 C         0.6142068270        4.2635684998        2.9839575770
 C         1.3380620281        3.5346889065        4.0994727844
 C         0.6408043203        2.1082218287        4.3208945205
 C         0.9723324449        1.3531841000        5.6006629148
 C         2.7279195568        3.0959479572        3.6628898852
 C         1.3769672461        4.3400420402        5.4361521320
 O         1.2426771797        4.6491241956        2.0136388209
 O        -0.2189371366        1.6907901515        3.5702793513
 C        -0.3754466081        1.2482683978        6.4017935392
 C        -0.0706383800        0.4801990668        7.6973915185
 C        -1.2748929659       -0.1645186911        8.4850346646
 C        -2.1444192008        1.0029658679        8.9966721907
 C        -3.1125583090        0.8816955421       10.1615316246
 O         1.0325239295        0.1459301677        8.0868535956
 O        -2.2583410139        2.0568444778        8.3508928549
 C        -2.0955556702       -1.1636227336        7.6156486792
 C        -0.6737307787       -0.9200108602        9.6296661543
 H        -2.8166757511       -9.4828679213        5.0671491502
 H        -3.9448872532       -8.9436299784        3.9699293745
 H        -2.7660437002      -10.2212161706        3.4583329770
 H        -2.3498380040       -7.5691108205       -0.2632757106
 H        -3.1122543372       -6.6855505835        1.2194167211
 H         0.3960907367       -7.6671350395        3.5999613410
 H         1.2974500224       -8.7231228650        2.5988465958
 H         0.3459920933       -9.4141190949        3.8271358382
 H        -2.0580258899       -9.5462583062        0.8624795367
 H        -0.3991913599      -10.0076798011        0.7988966359
 H        -1.2204753716      -10.5778204122        2.2249839113
 H        -2.2801707671       -4.6209249235        0.4073750899
 H        -0.7847361170       -5.2946603623       -0.2349329202
 H        -0.6301018980       -3.9847194909       -4.3562705222
 H        -1.3945046018       -2.2825182155       -4.0693205170
 H        -3.0704854439       -3.9671430753       -4.5648268266
 H        -4.5411393209       -4.6378579603       -3.9367512246
 H        -3.2715345692       -5.7381040354       -3.9728168278
 H        -3.5899853668       -3.1327239706       -0.7792506959
 H        -4.2512257520       -2.6786452187       -2.3620959241
 H        -4.8505284925       -4.1611929519       -1.5440296693
 H         1.1240597674       -2.1966832976       -4.1899958140
 H         1.1817706711       -3.2641919046       -2.7629298755
 H         4.1684818808        1.0920593438       -1.1176852165
 H         4.1138228953       -0.6089031108       -1.6635507833
 H        -0.4906568025        0.1271294944       -0.3244081102
 H         0.7131149948        0.0908412938        0.8542730673
 H        -0.2090690257       -1.3595928303        0.4505544433
 H         1.4061626976       -2.8469426874       -0.1532451029
 H         2.5236851274       -2.7350382666       -1.4719950469
 H         2.8576546853       -1.9305885671        0.0211837176
 H         3.7436159083        2.0789769442       -3.1320667719
 H         5.2581871076        1.2014988777       -3.1180696902
 H         2.2394193042        0.6088082238       -7.6029360322
 H         1.6661108103        0.1566474545       -6.0495143135
 H         5.0624208894        3.2367617334       -5.1099351079
 H         5.9349431935        2.5439886586       -6.4211875600
 H         6.1962085786        1.9048404942       -4.8218256514
 H         5.7966810710        0.1767632623       -6.9810469882
 H         4.2051056613       -0.6804480177       -6.7492955103
 H         4.3227370215        0.4956317093       -7.9457743379
 H        -0.2864965186        0.9626033958       -7.3375875913
 H         0.5025040053        2.4460217375       -7.8284105598
 H        -2.1650716459        5.6153314071       -4.6312594822
 H        -3.7659392693        4.7977903602       -4.5083469354
 H        -0.3950645099        5.1261237648       -5.6962984160
 H        -1.7049336207        5.4156306075       -6.8050693517
 H        -0.1311975725        4.4637979920       -7.3219903474
 H        -3.4426106401        3.0617489799       -7.1558222356
 H        -2.0387692529        2.3424586180       -7.8830671489
 H        -2.9374117371        1.5991558537       -6.3685384361
 H        -3.6757763301        5.8081259025       -2.4405082554
 H        -3.6453755766        4.0875934680       -2.2721836378
 H        -2.8931606234        3.8649962689        2.3907976659
 H        -1.8769941970        2.6852168434        2.6179623720
 H         0.4255311963        5.9329053129        0.0841646096
 H        -0.7822949808        6.6466136943        1.1230317682
 H        -0.5477786448        7.1521946464       -0.6110538193
 H        -3.1099897275        6.4602510200        1.2703003728
 H        -3.3625273846        6.7827147256       -0.4974850270
 H        -3.9853356845        5.3307887684        0.3254325949
 H        -1.2413819660        4.5330800855        4.1447241810
 H        -1.1239169288        5.5825291126        2.8742531581
 H         1.3746511512        0.3943669767        5.2784952303
 H         1.6662521414        1.8394391653        6.2462791151
 H         2.7105420673        2.6255718629        2.6881903313
 H         3.2995281919        2.4598176944        4.3606605364
 H         3.3962085005        3.9338734447        3.7423117794
 H         1.5624962490        3.7272552502        6.3067709220
 H         2.0701906004        5.2614421252        5.4120514321
 H         0.3910196996        4.7474112958        5.6989994745
 H        -0.8206528774        2.2248823879        6.6468907492
 H        -1.1300832645        0.6239463744        5.9201801800
 H        -3.9943751851        1.4990725170        9.8712820411
 H        -3.5004480532       -0.1113080372       10.4875117277
 H        -2.7251151705        1.4055364577       11.0161716789
 H        -2.9819221935       -1.4838443581        8.1440598358
 H        -1.5257662225       -2.0388581075        7.4600375836
 H        -2.3287262303       -0.6047123777        6.7208863043
 H        -1.3553385401       -1.5207887685       10.1837884668
 H         0.0986742962       -1.6436147243        9.3043210948
 H        -0.2343278018       -0.2653627507       10.3546711554
 Na       -0.4547406702        2.2235448042       -2.4279001417
