155

 C         6.1420641606        0.2833738718        0.6989464530
 C         4.9688280044        0.5855193296       -0.1767746750
 C         4.9992838183        1.8949051944       -0.9605970204
 C         5.5221023036        1.4610647414       -2.4697038196
 C         6.5660716700        2.0564541019       -3.3264871277
 C         3.6413152392        2.5158509466       -1.1077338345
 C         5.9853689623        2.9157903279       -0.3648666494
 O         4.0165949636       -0.1862746798       -0.2978022708
 O         4.7652857350        0.7237577590       -3.0878845450
 C         7.4594686827        1.0079846943       -3.9812880235
 C         8.3095716020        0.1817713971       -2.9503651720
 C         9.1727826631       -0.8290547852       -3.6261406554
 C         8.3094432238       -2.0744927550       -3.7764872112
 C         8.0519067195       -3.0344321867       -2.6320652028
 O         8.2140003966        0.3421991875       -1.7666899398
 O         7.6081866142       -2.2007082012       -4.7659343848
 C         9.6903179418       -0.4524650738       -5.0254554578
 C        10.3495630697       -1.1594150165       -2.6370632721
 C         6.9714790086       -4.1757078136       -2.8929481794
 C         5.4841751954       -3.6818312111       -2.8905768387
 C         4.4083627961       -4.5477192584       -3.7175853514
 C         3.0976462249       -3.6297092864       -3.8625813656
 C         2.5412158398       -3.2687141193       -5.2334186036
 C         4.7913400725       -5.2077894923       -5.0885776261
 C         3.9437242898       -5.7355025211       -2.7623680276
 O         5.1383131380       -2.7726495518       -2.1347620387
 O         2.5955563554       -3.1404448022       -2.8653757623
 C         1.4441690234       -2.2457498434       -5.2987946894
 C         1.8799247437       -0.7247080316       -5.0485352023
 C         0.7731939110        0.2966567159       -4.5116569665
 C         0.3277231708       -0.2679320021       -3.0737707924
 C        -1.1051394703        0.0551209299       -2.6524012153
 O         3.0771366962       -0.4614401843       -5.1613583540
 O         1.0015485096       -0.8654197964       -2.2831280696
 C         1.2452096260        1.6608751475       -4.3380608966
 C        -0.4566238795        0.1008795399       -5.4954347556
 C        -1.2583716051       -0.1500085776       -1.0736086492
 C        -0.2833951870        0.7631852760       -0.1910337333
 C        -0.3759738328        0.5945404167        1.3492478100
 C        -1.6908546601        1.1515847741        1.9293943736
 C        -1.7206546478        2.4601553378        2.7275777381
 C        -0.4350714695       -0.8913186344        1.7265905505
 C         0.9241148792        1.2276431858        1.9270447716
 O         0.3603996541        1.6043360855       -0.8336665139
 O        -2.7144567325        0.6770852311        1.5798925387
 C        -3.1262204338        3.2543107065        2.5483585927
 C        -3.4666736486        3.8372699182        3.9356456606
 C        -4.9369481300        4.3897885321        4.3113690877
 C        -5.6504456272        3.2273564897        5.0323728160
 C        -5.2041424653        2.8645146284        6.4610178632
 O        -2.7234384682        3.7226063065        4.9117515304
 O        -6.4324669728        2.4926562512        4.3689730302
 C        -4.7504814077        5.6546187461        5.2634537449
 C        -5.8568712047        4.8518977366        3.0427742776
 C        -6.2503593730        1.8295298580        7.0883527122
 C        -6.3203742587        0.4048362162        6.2461592022
 C        -7.6835139310       -0.2874720272        6.1224914947
 C        -8.5974204703        0.6205455290        5.1708705230
 C        -8.3995671534        0.6088347055        3.6469339071
 C        -7.5297369699       -1.6791028745        5.5016023345
 C        -8.3355986270       -0.4357519517        7.4893025581
 O        -5.2834667219       -0.1076597940        5.8571114895
 O        -9.5421742148        1.2054097853        5.6829656537
 C        -9.6135711802       -0.0430805729        3.0309252232
 C        -9.8270234684        0.1666462902        1.5088028986
 C       -11.2506234182        0.1650173885        0.8410515457
 C       -11.2151396573       -0.3938814025       -0.5974442287
 C       -10.6838340234        0.5356227905       -1.7858076936
 O        -8.8711438893        0.4645559616        0.7980237101
 O       -11.6411272210       -1.5244080036       -0.8356363219
 C       -12.1533009788       -0.7125585279        1.7113850724
 C       -11.8302303866        1.5968216124        0.7857308974
 H         6.2107228308       -0.7367548396        1.0731077948
 H         7.0113547990        0.8414253454        0.3833499134
 H         5.9221671211        0.8997173404        1.5839973124
 H         6.0839581559        2.5844612426       -4.1796655658
 H         7.1926203662        2.6589129530       -2.6289510816
 H         3.6743517341        3.4768772880       -1.7006569054
 H         3.1471878361        2.8079333060       -0.2466248802
 H         2.9973231544        1.9877873907       -1.7581689887
 H         7.1031958507        2.7226198691       -0.5202530633
 H         5.6872192484        3.9560635159       -0.6768329720
 H         6.0387570055        2.9204816784        0.7162605926
 H         6.9677234436        0.2075047734       -4.4179953119
 H         8.0527526572        1.5118865869       -4.7132642837
 H         9.0312000576       -3.6088633966       -2.4807844132
 H         7.8520370017       -2.4546509346       -1.7593375636
 H         8.9844058691       -0.7214052475       -5.7449819402
 H        10.7107740758       -0.8646027470       -5.1849117310
 H         9.8194507664        0.6613743844       -5.1101216326
 H        11.0256026365       -1.7868176187       -3.2872528074
 H        10.7803235516       -0.2322809112       -2.2779520893
 H         9.9934679613       -1.7586361746       -1.7856977566
 H         7.0343700264       -4.8051097855       -2.0352817654
 H         7.0922385703       -4.6543722921       -3.9025728631
 H         3.3635809001       -3.0167245003       -5.8968116055
 H         2.2122109969       -4.2636375064       -5.6462165107
 H         4.8040069290       -4.4532587383       -5.8673062254
 H         3.9882139870       -5.8568202822       -5.4177863265
 H         5.5217125014       -5.9610567197       -5.0066292173
 H         4.9573687516       -6.1533508908       -2.4601409844
 H         3.2525959550       -5.4010958738       -1.9130995630
 H         3.3547531039       -6.5241142860       -3.2702870064
 H         0.9553443251       -2.4277503441       -6.2431828246
 H         0.6790411923       -2.4216537730       -4.5568626508
 H        -1.2465747619        1.0721788187       -2.8968365501
 H        -1.8016519450       -0.6723767573       -3.1639845773
 H         2.2320249459        1.7670804824       -3.9376896517
 H         0.5871573453        2.4402219451       -3.8447726787
 H         1.3576014627        2.0862206581       -5.3034001211
 H        -1.3182554181        0.7757713463       -5.2332412215
 H        -0.2012938251        0.2162517581       -6.5487910844
 H        -0.8216826917       -0.9161437595       -5.4513031579
 H        -1.0275606962       -1.1758467682       -0.7771709302
 H        -2.2932914405        0.1510027794       -0.8483161584
 H        -1.6505405604        2.3642461095        3.7967267959
 H        -0.9747899758        3.1211381769        2.3883682717
 H        -0.4158534813       -1.0103280425        2.7795000801
 H         0.5448018632       -1.1998518425        1.3328853851
 H        -1.3190708616       -1.3791982298        1.3916753994
 H         1.6992333169        0.4568784950        1.8948865247
 H         1.2824576119        1.9771071576        1.1771755195
 H         0.7052995238        1.7766077448        2.8483948621
 H        -3.0841364893        4.1170709067        1.8514744416
 H        -3.9024628651        2.5761068163        2.2719040588
 H        -4.1814169394        2.3299776938        6.5703595828
 H        -5.1137578501        3.7510330939        7.0762022833
 H        -4.3995522030        6.4220864533        4.6225114824
 H        -4.0569562730        5.4106872720        5.9992637977
 H        -5.6389197278        5.9436259692        5.7339918257
 H        -5.2928952797        5.6672861867        2.4513672508
 H        -5.8782419474        4.0082433694        2.4437679605
 H        -6.8403053993        5.1750584573        3.3766265707
 H        -7.3093532182        2.1911929972        7.0300731255
 H        -6.0257440687        1.4124828098        8.0743716826
 H        -8.1998427871        1.6729759039        3.2588214581
 H        -7.4789507767       -0.0505854739        3.4237493295
 H        -6.7730719316       -2.2253860591        6.0927011212
 H        -7.1979955752       -1.6147075425        4.4802107459
 H        -8.4957795746       -2.2506515275        5.4136827897
 H        -8.7523712895        0.5520132230        7.8091735897
 H        -9.1376598250       -1.1684860751        7.6377203837
 H        -7.6556969683       -0.6763222275        8.3344658144
 H        -9.7688388641       -1.0581223187        3.1981010648
 H       -10.5373584729        0.3351714507        3.4271739623
 H       -10.6345198786       -0.0942280640       -2.7130087674
 H       -11.3107528087        1.3985989014       -1.8972010749
 H        -9.6940175642        0.9006169907       -1.6590352795
 H       -11.8608680886       -1.7816309567        1.7044452137
 H       -13.1758742496       -0.9238315488        1.4037734873
 H       -12.1700848479       -0.3965031293        2.6892750434
 H       -12.7326705651        1.5889218636        0.1536602089
 H       -12.1170977980        1.9844036316        1.8251054900
 H       -11.1497852126        2.3098703417        0.4392775232
 Na        3.4143740200       -0.9386931793       -2.2986908189
