155

 C         5.6319264795        0.3618431375        1.1201160421
 C         4.8356801092        0.5055519021       -0.1923026972
 C         5.0199666875        1.8232321344       -0.9895257185
 C         5.6266489012        1.3981505030       -2.4228541985
 C         6.7210113564        2.3121543166       -3.1071898551
 C         3.6881522278        2.4136510557       -1.3318892265
 C         5.9530072269        2.8829600717       -0.2016827849
 O         4.0488880928       -0.3975180081       -0.5210154656
 O         5.2330595965        0.4581278031       -3.1029993280
 C         7.7715841305        1.3712717670       -3.6377215159
 C         8.3665525833        0.4728448803       -2.5142549423
 C         9.4513874258       -0.5666394096       -2.7644275947
 C         8.5579257821       -1.7745441319       -3.4492510081
 C         8.1305758463       -2.9748841464       -2.5617287429
 O         7.8507980828        0.5112998916       -1.4171778118
 O         8.1331016290       -1.6739684949       -4.6018978079
 C        10.5618532678       -0.0831321179       -3.7680198317
 C        10.1560554969       -1.0178202453       -1.4497785564
 C         7.1659093640       -3.9816139812       -3.1112074689
 C         5.6319699537       -3.4225870890       -3.3711258097
 C         4.5213932496       -4.4549960700       -3.7677915609
 C         3.2486649833       -3.6438794307       -4.0355875165
 C         2.8460740194       -3.1405275501       -5.5155153436
 C         4.9534171373       -5.3033025441       -5.0267926116
 C         4.3594244417       -5.3023291264       -2.4674733561
 O         5.4699807769       -2.2196157110       -3.3110247306
 O         2.4962631584       -3.2539169217       -3.2012252413
 C         1.6249779429       -2.2602433469       -5.6873992241
 C         1.8282497493       -0.8369006638       -5.1011478811
 C         0.6335411032        0.0274257870       -4.6534672560
 C         0.2544913632       -0.4279220270       -3.1890223716
 C        -1.2374580616       -0.2236936607       -2.7836929388
 O         2.9450738664       -0.4399986671       -4.8624724934
 O         1.0601914189       -0.7750903622       -2.3502696261
 C         1.0475994156        1.4945373635       -4.5093596139
 C        -0.5316808995       -0.0039452575       -5.6050414160
 C        -1.4389484885       -0.3955334548       -1.3090652264
 C        -0.5597629680        0.4950387341       -0.4581999099
 C        -0.5632283716        0.3330576418        1.1254286706
 C        -1.9582163660        0.9948615592        1.5495842104
 C        -2.0982583175        2.3122404735        2.2706158950
 C        -0.6998451654       -1.2085560269        1.5553411111
 C         0.6389752900        1.0230475001        1.7451099870
 O         0.0414206909        1.4117022594       -0.9274110127
 O        -2.9654616179        0.3444600020        1.2113693219
 C        -3.4633168509        2.5956493742        2.7956440808
 C        -3.3409427170        3.5737561328        3.9746423348
 C        -4.5433256511        4.4738725996        4.4710815674
 C        -5.6767822986        3.4865659711        4.9827265846
 C        -5.5881191712        3.0577898908        6.5056469666
 O        -2.2783760819        3.6841299949        4.5711198542
 O        -6.4985380310        3.0333502031        4.1562410594
 C        -3.9433145216        5.3383677379        5.6641028408
 C        -5.0461181002        5.3567518536        3.2421916986
 C        -6.7929362912        2.1203487867        6.9325055267
 C        -6.5108826959        0.6208707577        6.2942562770
 C        -7.7533741005       -0.3116448145        6.1313556110
 C        -8.7703838060        0.5543050008        5.1645022753
 C        -8.7777753351        0.3237816265        3.6620947732
 C        -7.3063362358       -1.5793085835        5.4502019542
 C        -8.4778398931       -0.6457144436        7.4200040960
 O        -5.3612835918        0.1671026256        6.1370463905
 O        -9.5184917610        1.4033038446        5.7031311966
 C       -10.1562993893        0.0499556290        3.1216881324
 C       -10.0644885855        0.0928487140        1.6458983960
 C       -11.5090993235       -0.0286554080        0.8632680037
 C       -11.1298726768       -0.5491565864       -0.5924438500
 C       -10.2124297537        0.2759523936       -1.4707118160
 O        -9.0220392658        0.0727047570        1.0131802878
 O       -11.6522437483       -1.5556089316       -0.9626798241
 C       -12.5326327207       -0.9142549838        1.5120275621
 C       -12.1648822096        1.3610697424        0.6289049227
 H         5.5258859434       -0.6600270342        1.6160612181
 H         6.6290054766        0.5731203711        0.9148701476
 H         5.2949133382        1.0367006125        1.8792792072
 H         6.2324136759        2.9459691880       -3.9012756865
 H         7.1716112906        3.0711633811       -2.4172202768
 H         3.7989161452        3.3975826099       -1.7521211893
 H         2.8921338570        2.4269131071       -0.5773984278
 H         3.2073212271        1.7864140203       -2.1697599899
 H         6.9753189787        2.8228544298       -0.4882287206
 H         5.7019330415        3.9194537995       -0.6320008522
 H         5.7254070699        2.9431629602        0.8377940645
 H         7.3815111034        0.6743622608       -4.4365065970
 H         8.6234521144        1.8548313999       -4.1233132899
 H         8.9536507812       -3.5343990936       -2.1798326769
 H         7.7228861942       -2.4228387375       -1.6520758788
 H        10.2423033932       -0.2543418225       -4.8053560382
 H        11.4620870946       -0.6972865818       -3.6447355192
 H        10.8666352391        0.9617186655       -3.5437619489
 H        11.0544397700       -1.5884711481       -1.6847581812
 H        10.5060970304       -0.1469220993       -0.8466341582
 H         9.4796101772       -1.6526588360       -0.9527296228
 H         6.9531324575       -4.7236805499       -2.2732966679
 H         7.4827237588       -4.5228471529       -3.9580622766
 H         3.7966666209       -2.5527259771       -5.8241182422
 H         2.8132218170       -4.0065204403       -6.1924460679
 H         5.0800744295       -4.7267591842       -5.9368691457
 H         4.2772764992       -6.0799829081       -5.1773897077
 H         5.9731657816       -5.6352897804       -4.8512940854
 H         5.2138412434       -5.9272330622       -2.1746913411
 H         4.3734259469       -4.5752406280       -1.6177663905
 H         3.4545734791       -5.9252533286       -2.6194938836
 H         1.2814096241       -2.1043540657       -6.7499137634
 H         0.8057300518       -2.6651680314       -5.0538903731
 H        -1.4961972586        0.7495479135       -3.2652992423
 H        -1.8040862394       -0.9715293769       -3.2893390576
 H         2.0256488258        1.6628722986       -3.9543267050
 H         0.3471916105        2.0660624433       -3.8742397639
 H         1.1212822374        2.1033142568       -5.3962609498
 H        -1.3174876171        0.7111895503       -5.2778231197
 H        -0.1201530845        0.4495508819       -6.4893168061
 H        -0.8901508146       -0.9560282657       -5.8299203840
 H        -1.1948537939       -1.3942692673       -1.0931307348
 H        -2.4036796901       -0.2896638548       -0.8757781986
 H        -1.3730350881        2.3076192287        3.0665477086
 H        -1.8361195219        3.1087558007        1.5725712303
 H        -0.6512391519       -1.2904608845        2.6381727274
 H         0.0156356501       -1.7929141500        1.0501038783
 H        -1.6751956461       -1.4766198672        1.2012807937
 H         1.4886577439        0.3037569133        1.8213955231
 H         0.7981049607        1.8737501952        1.1512993958
 H         0.5227456043        1.2244143918        2.8463379405
 H        -4.1185145805        3.0845357282        2.1039634327
 H        -3.8684067799        1.6408267360        3.1929817325
 H        -4.7191466938        2.4765956654        6.5136941203
 H        -5.4423113788        3.8087223289        7.2712970288
 H        -3.1542828787        5.9132676602        5.2715292047
 H        -3.5151175459        4.7290391706        6.4136025093
 H        -4.6368213450        5.9861510256        6.0209979858
 H        -4.2700709161        5.5287226198        2.4903646917
 H        -6.0432057864        4.9681637037        2.9201265318
 H        -5.2738083568        6.3268842770        3.6389440764
 H        -7.7203912900        2.3174258428        6.4974896058
 H        -6.7870254080        2.0332650199        7.9782944359
 H        -8.3976481605        1.2562678178        3.2594274027
 H        -8.0118926875       -0.3360250118        3.4321872526
 H        -6.8682669398       -2.1468298296        6.3058995213
 H        -6.4852829994       -1.4842746506        4.7367916253
 H        -8.1283681935       -2.2272741767        5.1218085118
 H        -8.9307043377        0.1723378258        7.9811915044
 H        -9.2499520887       -1.3773655058        7.1990624573
 H        -7.8069797604       -1.0146420478        8.2126895140
 H       -10.4916396778       -0.9346413559        3.5166100626
 H       -10.9935597757        0.6715549388        3.3815044428
 H        -9.2240615007        0.2505420883       -1.0777443162
 H       -10.2907948111       -0.1567470922       -2.5139673472
 H       -10.6836913412        1.2932885976       -1.5800124057
 H       -12.1176405849       -1.8589706728        1.7527433181
 H       -13.4992628942       -0.8917747426        0.9472559141
 H       -12.8687206474       -0.5646004090        2.4688022984
 H       -12.8784409398        1.3935064838       -0.1801198912
 H       -12.6113933050        1.6720078436        1.5948783853
 H       -11.4114293458        2.0828366413        0.2426529220
 Na        3.3707687317       -0.8329832182       -2.7212885919
