155

 C         5.4356893645        0.5158169408        1.2806776980
 C         4.9662538484        0.5078582601       -0.1876553488
 C         4.9044136605        1.8885242089       -0.9636480163
 C         5.6440992651        1.7144598202       -2.3185296680
 C         6.8585984989        2.5420312104       -2.7894684868
 C         3.4049820741        2.2764171453       -1.3289062943
 C         5.5665235922        2.9857781642       -0.1349016046
 O         4.5490668039       -0.5202735971       -0.6736966889
 O         5.1061236204        0.9761893244       -3.1183666381
 C         8.0583724728        1.6274287597       -3.1191799461
 C         8.3788005207        0.6022572931       -2.0181820565
 C         9.4850434644       -0.4448523573       -2.2798602717
 C         8.8102129541       -1.6247375295       -3.2194172020
 C         7.9900783611       -2.7994853196       -2.6358208902
 O         7.7263868314        0.5859377993       -1.0193409908
 O         9.0986681115       -1.6836181747       -4.3836127329
 C        10.7349591175       -0.0389351863       -3.1055177743
 C         9.8732635478       -1.1232007593       -0.9150081557
 C         7.2769678163       -3.6462025513       -3.6982520074
 C         5.6568948594       -3.3887886335       -3.6361153054
 C         4.6073679951       -4.4087835993       -3.8863247727
 C         3.3323562003       -3.5722281211       -4.2103162557
 C         3.0231811581       -3.1833379828       -5.6616814559
 C         5.0673726485       -5.2387291496       -5.0788180324
 C         4.4313158129       -5.2486039104       -2.6482101187
 O         5.3999218785       -2.2586157443       -3.1540458588
 O         2.7353052698       -2.9733115710       -3.3557149187
 C         1.7569970388       -2.3633083557       -5.9268321689
 C         1.8821794291       -0.9507392622       -5.2832312169
 C         0.6335920295       -0.1157240833       -4.8667943281
 C         0.3657056526       -0.5331862340       -3.3602359443
 C        -1.1982232991       -0.5364187528       -2.9313980056
 O         2.9923917201       -0.4229032292       -5.2572094564
 O         1.2945475431       -0.6632033942       -2.5683242263
 C         0.9961872550        1.3629154307       -4.9841910433
 C        -0.6000304338       -0.3991634458       -5.8281926628
 C        -1.4755156337       -0.7725509392       -1.4633602985
 C        -0.8300500638        0.2631917645       -0.5449379221
 C        -0.8836733110        0.1230661501        1.0042869859
 C        -2.2719045615        0.7494269437        1.4614625147
 C        -2.2103322477        2.0458768282        2.3311541242
 C        -0.7938308183       -1.3970294809        1.4884829473
 C         0.3511344536        0.9794848199        1.5980408136
 O        -0.4236051231        1.3024742814       -0.9928893275
 O        -3.2465847407        0.1998401859        1.0634664005
 C        -3.5248924898        2.4536402512        3.0337780394
 C        -3.2441112804        3.5482447549        4.1635317655
 C        -4.2799332980        4.4645040352        4.7041398279
 C        -5.5059596646        3.5470291574        5.1058149733
 C        -5.7212043810        3.2776797632        6.6366737700
 O        -2.1016816683        3.7537156032        4.5252898262
 O        -6.3318804489        3.1794396565        4.2620343456
 C        -3.7704067744        5.2738488042        5.9324858496
 C        -4.7396814044        5.4381011763        3.5407364985
 C        -6.9338952026        2.4036772100        6.8792294013
 C        -6.5825973810        0.9454828744        6.2204629882
 C        -7.7822809415       -0.1009723780        6.1184063491
 C        -8.9755566028        0.4254719969        5.3255068953
 C        -8.9541972820        0.0974450505        3.7916236709
 C        -7.1490359392       -1.4672345669        5.6077851831
 C        -8.3266570660       -0.4859073587        7.6094538538
 O        -5.4825548518        0.5502464850        5.9555843862
 O        -9.8331955376        1.1746929226        5.8500244809
 C       -10.2593917314        0.3540902406        3.0123912975
 C       -10.1938744621        0.0051290338        1.5834538414
 C       -11.5485818577       -0.1431158969        0.6559486718
 C       -11.2548777707       -0.7034860512       -0.7452702256
 C       -10.4320151007        0.1500778189       -1.7301454600
 O        -9.1231765472       -0.1024070295        0.9921981454
 O       -11.6969264257       -1.8312897439       -1.0544060717
 C       -12.5937087545       -1.0674981091        1.2793796008
 C       -12.1907614113        1.3122080345        0.5722156503
 H         5.2141813620       -0.4669734310        1.7666260903
 H         6.5168008111        0.4780359364        1.3248248893
 H         5.0556330953        1.3335825245        1.9076122462
 H         6.6869782462        3.2777684695       -3.6018586059
 H         7.1641812559        3.3362677843       -2.0893906820
 H         3.4710170695        3.1146214978       -2.0147255110
 H         2.7783216037        2.5314063503       -0.5469542722
 H         2.8623378055        1.3982786364       -1.7119465611
 H         6.6977605250        2.8170736567       -0.2260697842
 H         5.2013422363        4.0422384835       -0.4910670974
 H         5.2168691889        2.8938031337        0.8675420687
 H         8.0106375826        1.1155942907       -4.0770295587
 H         8.8875392866        2.2512459735       -3.3345193960
 H         8.7301464273       -3.4439752785       -2.1762397181
 H         7.3006898985       -2.6324304474       -1.7443439506
 H        10.5246351191        0.4631405750       -4.0157341985
 H        11.2365986216       -0.9701508822       -3.3467288073
 H        11.3148668313        0.6556096799       -2.4530411202
 H        10.1335753827       -2.1970234221       -1.1934105975
 H        10.7745790494       -0.6658401710       -0.3975185577
 H         9.1102380278       -1.0606715052       -0.1468819127
 H         7.4733416063       -4.7651279632       -3.6224932118
 H         7.6471700253       -3.4253328375       -4.6663052798
 H         3.9013734234       -2.7549855618       -6.2344022938
 H         2.7048077690       -4.0715976783       -6.2252521629
 H         5.5144229797       -4.6564149837       -5.9351170430
 H         4.1914282591       -5.8024413990       -5.3526667429
 H         5.9288876789       -5.9102613089       -4.8288427885
 H         5.3702351742       -5.7165719888       -2.2506631526
 H         3.9811581253       -4.5685761079       -1.8290437787
 H         3.6758589799       -6.0258783153       -2.8975619156
 H         1.6737527189       -2.3721651081       -6.9996407197
 H         0.9302430949       -2.8247879747       -5.4107566189
 H        -1.6308551209        0.4106778040       -3.3417759316
 H        -1.7510071049       -1.2291566808       -3.5463605158
 H         1.7095043772        1.6947098398       -4.2338078249
 H         0.2060102216        2.0538971946       -4.6613706532
 H         1.4104691467        1.6327852481       -5.8793177770
 H        -1.5487885412        0.1800768552       -5.5153683936
 H        -0.2847949212       -0.1103422455       -6.8364205224
 H        -0.8761551893       -1.4013281287       -5.7329841263
 H        -1.1094156546       -1.6668804598       -1.0412426334
 H        -2.5178488355       -0.8782173593       -1.2777845347
 H        -1.3909576217        1.9676400524        3.0094788928
 H        -1.8808853212        2.8200109552        1.6386224776
 H        -0.3705964528       -1.3263054916        2.5111370331
 H        -0.1667016098       -2.0287188296        0.8646564060
 H        -1.7696127132       -1.8095078973        1.3430267629
 H         1.3088651424        0.6949993392        1.0967656634
 H         0.2956383741        2.0504749656        1.6012432120
 H         0.4803545954        0.5332859192        2.6208849512
 H        -4.1988701441        2.8182733626        2.2698118719
 H        -4.1107386073        1.6727658976        3.5535994362
 H        -4.7974428874        2.9244819163        7.0481911848
 H        -5.8298649271        4.3438212307        6.9962337542
 H        -2.8649136832        5.8573483322        5.6756684782
 H        -3.4783776005        4.5669109914        6.7011344743
 H        -4.5325142271        5.9341378973        6.3385818765
 H        -4.1311926908        6.4172322335        3.4106668755
 H        -4.6691099953        4.8482219268        2.6123154514
 H        -5.7835731036        5.5742478326        3.6600442248
 H        -7.8365278375        2.7753946539        6.4860635877
 H        -7.0295744173        2.0832884271        7.8670483683
 H        -8.0287725056        0.4729519600        3.2814158030
 H        -8.6976652448       -0.9477651122        3.8677295428
 H        -6.4021854028       -1.8414404786        6.3217270032
 H        -6.6437979673       -1.3121377269        4.6969094115
 H        -7.9090498391       -2.2457905266        5.5267507534
 H        -9.0023471169        0.2824596767        8.0383977169
 H        -9.0390199656       -1.3227489563        7.5275853376
 H        -7.6329719929       -0.8454261830        8.4181874950
 H       -11.0082325296       -0.3138389658        3.4575910726
 H       -10.5061762348        1.3686833484        3.1841819244
 H        -9.6746983482        0.6192732698       -1.0811220163
 H        -9.9770666278       -0.4574619223       -2.4850724009
 H       -11.0726993028        0.8781324537       -2.1517595126
 H       -12.2092656878       -2.0220838818        1.6227606536
 H       -13.4670240986       -1.1935034713        0.5687218859
 H       -12.9886378384       -0.5991798436        2.1354287356
 H       -13.1374651432        1.2432550589        0.1029922204
 H       -12.4206383262        1.7347959263        1.6084893568
 H       -11.5376232984        1.9710224704        0.0463428747
 Na        3.5938847079       -0.8877452155       -2.8211328120
