155

 C         4.0138571532        0.5986488849        1.4894245559
 C         4.0234308022        0.7723540596       -0.0607166427
 C         4.2547561027        2.1861499554       -0.7084102585
 C         5.5729796218        1.8842594907       -1.6702242359
 C         6.9327759548        2.6727980475       -1.6188716656
 C         3.0966821844        2.6230474275       -1.6654892615
 C         4.5016510946        3.2029816371        0.3670563393
 O         3.7142397189       -0.2196804819       -0.7572766156
 O         5.3824002296        1.0865003360       -2.5663911012
 C         8.0220953075        1.6790719855       -2.1961543246
 C         8.2419863544        0.5455601530       -1.1675850246
 C         9.4499268796       -0.5015764228       -1.2464824901
 C         9.2382047450       -1.4065115135       -2.5062016047
 C         8.4667768360       -2.7478130517       -2.3486222646
 O         7.5119308599        0.4962389596       -0.1690104264
 O         9.8927676861       -1.1381926414       -3.5245834503
 C        10.7422861412        0.3035207518       -1.4266801700
 C         9.5209300622       -1.2530426277        0.0376822573
 C         7.9010352930       -3.2591925971       -3.7554787773
 C         6.4358665117       -2.8424813449       -4.0884735854
 C         5.4436695562       -4.0042379018       -4.6514765869
 C         4.0202039337       -3.3157100485       -4.6893986064
 C         3.3028882133       -3.1907100355       -6.0719914451
 C         6.0032522671       -4.4775314307       -6.0706389997
 C         5.3051843805       -5.1332880936       -3.5506870790
 O         6.0068979844       -1.7372998712       -3.8613576797
 O         3.4988845848       -2.8128711158       -3.7075450588
 C         1.7945917520       -2.6210246212       -5.9643689555
 C         1.8898449870       -1.0540849074       -5.6807074353
 C         0.5919874910       -0.3981135197       -5.1801756332
 C         0.5302807765       -0.5881554792       -3.5736955350
 C        -0.8295928804       -1.0826250232       -3.0919439100
 O         2.9699301546       -0.5047950880       -5.5736300751
 O         1.4726667669       -0.5777869110       -2.8441409000
 C         0.8301247779        1.0667459357       -5.2909366453
 C        -0.6298788657       -0.8929668197       -5.8694411294
 C        -0.9161906230       -1.2972872108       -1.5148959102
 C        -1.4070181783       -0.0185073572       -0.7031937704
 C        -1.4368188799       -0.1642570930        0.8544825424
 C        -2.5121687850        0.7079364788        1.4863660783
 C        -2.1978500996        1.6016769622        2.7246785687
 C        -1.7851481947       -1.5739672644        1.3037624192
 C         0.1067691964        0.1965266021        1.2361030770
 O        -1.7955742871        0.9331471387       -1.2589478878
 O        -3.6454795651        0.6857127617        0.9908270022
 C        -3.3533213843        2.4232678955        3.2594465962
 C        -2.9991085726        3.2772954434        4.4517422794
 C        -3.9478116102        4.5686294822        4.5927090532
 C        -5.3730976658        4.1180984807        4.7651474832
 C        -5.8298825191        3.3205972727        6.0772907735
 O        -2.3980952266        2.8598645057        5.4272062532
 O        -6.2235609706        4.1176582401        3.8696059558
 C        -3.5872990820        5.2952149119        5.8868822528
 C        -3.7966213366        5.5763382852        3.4525238059
 C        -7.0385199877        2.4500045416        5.7148646409
 C        -6.7614252691        0.9535453356        5.6898738846
 C        -7.8525748854        0.0408719225        6.0893834551
 C        -9.0957086692        0.2797483423        5.2080924408
 C        -8.9322897770       -0.2845370337        3.7839484585
 C        -7.3833019686       -1.4736452189        5.8578423438
 C        -8.0976958833        0.1917166123        7.6266352984
 O        -5.6146921079        0.5215745238        5.4135886515
 O       -10.0293943059        0.9945642437        5.5268905496
 C        -9.9222565548        0.3269729762        2.7787177986
 C       -10.1287610034       -0.3896317147        1.3985539595
 C       -11.5102373912       -0.3456637270        0.6599078040
 C       -11.4041889626       -0.9314375192       -0.7387571920
 C       -10.8496465459       -0.0569301930       -1.7878836226
 O        -9.1916956119       -1.0619834729        1.0445041950
 O       -11.8663604444       -2.0422392815       -0.9405483741
 C       -12.4565758112       -1.2979948783        1.5264848157
 C       -12.1415122355        1.0362557085        0.5094450771
 H         3.2485102016       -0.0081166697        1.8964722447
 H         4.9450136679        0.1330600078        1.8755039374
 H         4.0348843149        1.4747223164        2.0856750231
 H         6.6858298297        3.4359576200       -2.3376579504
 H         7.1254480284        2.9417030888       -0.5941195897
 H         3.4038985721        3.6165127166       -2.0214158973
 H         2.0784723241        2.6909696098       -1.1302559054
 H         3.1080578763        1.9770547146       -2.5792147856
 H         5.4637665541        2.9553728621        0.6906823395
 H         4.5250490047        4.1568140477       -0.0202932064
 H         3.6291559016        3.0795135303        1.0610092055
 H         7.6030397313        1.3628545021       -3.1673915251
 H         8.9755546028        2.2664399437       -2.2776083442
 H         9.0143807382       -3.5784054969       -1.8442123275
 H         7.5674503400       -2.4873320576       -1.8105054242
 H        10.7808111650        0.6830481906       -2.4477335284
 H        11.6777992786       -0.2654578564       -1.3491428373
 H        10.7587773971        1.0745906361       -0.6446564004
 H        10.3265486240       -1.9365559337        0.2114435358
 H         9.6105612502       -0.5656527491        0.8455505316
 H         8.6146379928       -1.8578066130        0.2684866995
 H         8.0730099080       -4.3579945206       -4.0079895198
 H         8.5476143256       -2.6903100517       -4.4062974624
 H         3.7808145756       -2.4558140497       -6.7431027445
 H         3.2441915275       -4.0400456130       -6.7377976639
 H         6.4534677560       -3.7134535337       -6.6608054790
 H         5.1844709225       -5.0241132671       -6.5498346492
 H         6.7895292835       -5.1493497823       -5.9302238093
 H         6.3134302180       -5.5364462752       -3.2048325129
 H         4.9030734540       -4.6638211518       -2.6506176673
 H         4.6529136636       -6.0110524078       -3.8864992408
 H         1.1399542814       -2.7940133443       -6.8473668093
 H         1.2218397025       -3.1157811631       -5.1356422682
 H        -1.3636816419       -0.1547477134       -3.3240739658
 H        -1.3007516203       -1.9113893829       -3.6453019951
 H         1.7468552239        1.4590971910       -4.8610036359
 H         0.0372613482        1.7467787848       -5.0000990393
 H         0.9436480263        1.3500083647       -6.4018661535
 H        -1.4514292595       -0.7002774937       -5.3080251640
 H        -0.8535412305       -0.5534926113       -6.8485547047
 H        -0.5254878156       -2.0061549594       -5.9276858488
 H         0.0832894996       -1.5889503481       -1.1157022058
 H        -1.7215198743       -2.0336441741       -1.3723976678
 H        -1.8200481883        0.9121537081        3.4895909811
 H        -1.4130979951        2.3794651299        2.5133809380
 H        -1.7669373409       -1.7164321953        2.3156252871
 H        -1.0353739826       -2.2399184849        0.8967800555
 H        -2.7059330136       -1.9604948277        0.9152260979
 H         0.8254139536       -0.6275698184        1.3103829117
 H         0.4788155766        0.9680399532        0.5160702774
 H         0.2794748531        0.5584923450        2.2169898975
 H        -3.6414652356        3.1069622065        2.4686191317
 H        -4.2379900231        1.8151376071        3.5620436135
 H        -5.0105382923        2.6995951588        6.5484185425
 H        -5.9965893186        4.2028423619        6.7052851644
 H        -2.7361929071        5.8531048058        5.9166242086
 H        -3.4984849445        4.5740740484        6.6417136561
 H        -4.3594460378        5.9369495670        6.1915412439
 H        -2.8726299469        6.0595320617        3.4602939624
 H        -3.9721360418        5.1031710685        2.5054769505
 H        -4.5671908296        6.3886621719        3.3815851442
 H        -7.4972782529        2.7681594054        4.6859168062
 H        -7.8667568761        2.4604805843        6.4753381172
 H        -7.8601739605       -0.3041014726        3.4558474850
 H        -9.3742840901       -1.3895836657        3.8564807153
 H        -6.5254584508       -1.7293838430        6.4719098559
 H        -7.2038536177       -1.6916593354        4.8178720204
 H        -8.1989284041       -2.1343714868        6.1981805233
 H        -8.5446082473        1.1725588513        7.8875005545
 H        -8.7905303477       -0.6212308313        7.8217532790
 H        -7.1648662782        0.2811660247        8.1832869692
 H       -10.9352324895        0.4287802729        3.2387750772
 H        -9.7162066995        1.3399559623        2.5715029031
 H       -10.0741076547        0.6069871013       -1.3906286064
 H       -10.4824083573       -0.6512635347       -2.6883580454
 H       -11.7125918377        0.5225909784       -2.1990348115
 H       -11.7776870736       -2.1414219419        1.7647432696
 H       -13.4185245492       -1.4444262425        1.1224474494
 H       -12.6340230600       -0.7845597428        2.5364559628
 H       -13.2288839536        0.8763619812        0.1906045849
 H       -12.2414584020        1.3893705480        1.5267244994
 H       -11.7739597940        1.6955185835       -0.2950009888
 Na        3.9212524800       -0.5819024742       -3.1684708446
