155

 C         3.9391295928        1.0093877213        1.5609339875
 C         3.8553997784        0.8914186307        0.1154970741
 C         3.6970629455        2.1259809932       -0.8367089606
 C         5.1629391349        2.0695519815       -1.3952967020
 C         6.4569875842        2.5934074848       -0.6155539123
 C         2.6703527877        1.9681588026       -1.8998044218
 C         3.2631845688        3.4077206624       -0.0775188000
 O         3.7791718664       -0.2175406064       -0.3692068199
 O         5.2738673780        1.5871373925       -2.4483942176
 C         7.7453710317        1.8421645544       -0.9226979842
 C         7.9456093739        0.5100416921       -0.1604598327
 C         9.1795650448       -0.3811355679       -0.6573857128
 C         8.9900294761       -0.9795466369       -2.0503626085
 C         8.6425120916       -2.5449093619       -2.0438499412
 O         7.2812895148        0.2971224700        0.8174270210
 O         8.9340334558       -0.2564557511       -3.0337059970
 C        10.3337341563        0.5993879062       -0.7372790148
 C         9.5886744689       -1.4060309471        0.3976171859
 C         8.2328365626       -2.9931221071       -3.5026188386
 C         6.7237023550       -2.8157805719       -3.5676611705
 C         6.0137137581       -3.3475925260       -4.8546695750
 C         4.5317210947       -2.7246020839       -5.0349591413
 C         4.0116183957       -2.3553305714       -6.4361619956
 C         6.8400331030       -2.9671135125       -6.0899163944
 C         5.8406432504       -4.8269309748       -4.7776748646
 O         6.0881126450       -2.1519350676       -2.7463186551
 O         3.8051086160       -2.7990555389       -4.0257722470
 C         2.5462019455       -2.0684607663       -6.4351457606
 C         2.2251725862       -0.8895272606       -5.4884868857
 C         0.7586558036       -0.5164825124       -5.1694101052
 C         0.5476432784       -1.1029798889       -3.6212218696
 C        -0.9565488515       -1.3293604805       -3.2646784018
 O         3.0988742168       -0.2584552922       -4.9123409459
 O         1.3947683237       -1.1988047872       -2.8078611173
 C         0.6347715978        0.9836771725       -5.0577124645
 C        -0.2370509462       -1.1227332739       -6.1583231067
 C        -1.2320363135       -1.6346867129       -1.7344301393
 C        -1.4490909940       -0.4335206012       -0.9083833734
 C        -1.6687422485       -0.6523672999        0.6278132530
 C        -2.7031416309        0.5380213014        1.2438883467
 C        -2.3051258301        1.2378969515        2.5669538234
 C        -2.2986363479       -2.1040290260        0.8266308536
 C        -0.3888200209       -0.5479087253        1.3857018342
 O        -1.2304963836        0.6823132052       -1.4038764910
 O        -3.7909177291        0.5850197827        0.7094807742
 C        -3.1772033830        2.4810458889        2.8247775918
 C        -2.7662570377        3.2862816040        4.0702364463
 C        -3.6247485967        4.6390295739        4.4327240998
 C        -5.1302887964        4.1724349871        4.5639385603
 C        -5.6189347129        3.6109637334        5.9179001382
 O        -1.9078775091        2.9389383895        4.8502906436
 O        -5.8719167428        4.3559908161        3.6254100600
 C        -3.0789537204        5.1715157229        5.8256850853
 C        -3.4561223730        5.7535944430        3.3420814515
 C        -6.9827310666        2.7335598356        5.7662362924
 C        -6.6275467283        1.2455126619        5.4299789451
 C        -7.7254494514        0.0711501104        5.7816961050
 C        -9.0655096781        0.2451065065        4.8581559690
 C        -9.1436533833       -0.6480833495        3.6132533333
 C        -7.0104908331       -1.2587231620        5.5075293403
 C        -8.3188031360        0.1607595168        7.2605737329
 O        -5.7005105146        0.9741920537        4.7457581791
 O        -9.7362285739        1.2345633553        5.0442239009
 C       -10.5119441583       -0.2809017614        2.9062388013
 C       -10.5804012070       -0.8355271921        1.5167899884
 C       -11.7618111018       -0.8422827480        0.5804062940
 C       -11.4746928921       -1.3098338198       -0.8446416522
 C       -10.1894941550       -0.8713640905       -1.5676001771
 O        -9.5639028044       -1.3039306683        1.0586552557
 O       -12.2563193650       -2.0102010276       -1.4198403990
 C       -12.9110074777       -1.7338007357        1.2381971232
 C       -12.2626052689        0.6989776060        0.4685676723
 H         3.0054645760        1.2733783317        2.1208528255
 H         4.1525298981        0.0416148777        1.9570148195
 H         4.6998929962        1.6932672040        1.9833937745
 H         6.4178620456        3.6653236062       -0.8190447693
 H         6.3708008922        2.6817681671        0.4741182304
 H         2.8009996891        2.7465832042       -2.6567177960
 H         1.7622516881        2.1203681802       -1.3724781384
 H         2.6612374458        1.0400901011       -2.4271687151
 H         3.8566996017        3.5895767450        0.8840297433
 H         3.3718375716        4.3650250226       -0.6955008711
 H         2.2540097394        3.3045131314        0.2338706167
 H         7.6275960790        1.5751589654       -1.9499321958
 H         8.6664158644        2.4804112074       -0.9756980820
 H         9.6133853474       -3.0251336871       -1.7016843555
 H         7.9466539541       -2.5718603019       -1.2823248859
 H        10.1031691997        1.2598520814       -1.6328718044
 H        11.2660209785        0.0735253571       -0.9851866108
 H        10.4426524985        1.1765457750        0.1500488759
 H        10.4016968835       -2.0302160063        0.1290990533
 H         9.8978209444       -0.8564171402        1.2983243896
 H         8.7993917969       -2.0645879190        0.5846349650
 H         8.5907313048       -4.0050452454       -3.6431168777
 H         8.6464958762       -2.3698670189       -4.3487414038
 H         4.5502182986       -1.5211762291       -6.8693719909
 H         4.2004235388       -3.2458406041       -7.0892678207
 H         6.8821122112       -1.8839141253       -6.0935689438
 H         6.3427992979       -3.2570787469       -7.0507957434
 H         7.8303756495       -3.4658014470       -6.0777140957
 H         6.7740912319       -5.2050494025       -5.0845307272
 H         5.4873363293       -5.1281631968       -3.7909411825
 H         5.0919970933       -5.2554961299       -5.4010894108
 H         2.2432581381       -1.7251622349       -7.3990516205
 H         2.0369585614       -2.9983170462       -6.1875655906
 H        -1.5959809693       -0.5237749125       -3.6854991856
 H        -1.2176276149       -2.2857498654       -3.8268302298
 H         1.5057601209        1.3908011352       -4.5262295035
 H        -0.2537765985        1.3781249464       -4.5863189147
 H         0.5724322197        1.4856045230       -5.9811773468
 H        -1.2805802882       -0.7042298848       -5.8654890373
 H        -0.1449664042       -0.7815703614       -7.1942524819
 H        -0.2312339744       -2.1728585050       -6.1886139965
 H        -0.4231700233       -2.1967766556       -1.3068692680
 H        -1.9745608925       -2.4175747177       -1.6191457541
 H        -2.5921030564        0.4646996000        3.2723820636
 H        -1.2173956956        1.4265862672        2.6793816306
 H        -2.8823254740       -2.1859947571        1.7694731637
 H        -1.5859938046       -2.8970780522        0.8511841699
 H        -3.1002386447       -2.2097232931        0.1236833756
 H         0.3858516704       -1.1525044252        0.9523585907
 H        -0.0763649824        0.4617801874        1.6101957207
 H        -0.5847635150       -0.8984352253        2.4122418465
 H        -3.2708444961        3.1057529240        1.8895836787
 H        -4.2074740569        2.1384879408        3.1022183270
 H        -4.8743954311        2.8410263346        6.1126248361
 H        -5.6821188908        4.2164756044        6.7986185394
 H        -2.0408994660        5.4681428015        5.6734208155
 H        -3.1437430855        4.3952142685        6.5690448928
 H        -3.6541275174        6.0385446793        6.0915739919
 H        -2.6430390320        6.4001808711        3.6548899798
 H        -3.0426406161        5.3758177545        2.3832066479
 H        -4.3185390363        6.3461146634        3.2096487654
 H        -7.4583580261        3.1341656385        4.8957353044
 H        -7.6536819982        2.9112455350        6.5671511879
 H        -8.3294969112       -0.3575168818        2.9708032839
 H        -9.0581403440       -1.6470563184        3.7341022605
 H        -6.1722420900       -1.3411727281        6.1873118340
 H        -6.5965641726       -1.3572879826        4.4496355912
 H        -7.6410109646       -2.1289578721        5.5915540331
 H        -9.1535332005        0.8575955022        7.2375421013
 H        -8.6538203319       -0.8657133110        7.6050435870
 H        -7.4571560906        0.4104505117        7.9020083947
 H       -11.2943472532       -0.8171006509        3.4860034654
 H       -10.6372436131        0.8210075554        2.8498990149
 H        -9.3978927432       -1.5954520277       -1.4854286633
 H       -10.3865698685       -0.8684815002       -2.6073838521
 H        -9.7417041782        0.0504647238       -1.1663086624
 H       -12.7326700575       -2.7540931446        1.0066195299
 H       -13.7883600803       -1.4455282146        0.6243760435
 H       -12.9575684216       -1.4145999945        2.2516426682
 H       -13.1161197741        0.7348404212       -0.1789496562
 H       -12.5972565321        1.0052158691        1.4433859363
 H       -11.5682340629        1.4730934897        0.0923277666
 Na        4.1229062194       -0.6838639023       -2.7040440069
