155

 C         3.5659945883       -0.3733795181        1.9224936840
 C         3.5166914919       -0.1047992958        0.5075970572
 C         3.5800910023        1.4095923008       -0.1089039195
 C         4.6185021591        1.3402653623       -1.3026591747
 C         5.6631716666        2.5076318981       -1.3369120623
 C         2.1699235052        1.6404836020       -0.7560601566
 C         3.7402844524        2.4446479924        1.1262379059
 O         3.5259599443       -1.0932634169       -0.1598317948
 O         4.7677005332        0.4584566145       -2.0848592986
 C         7.1270428668        2.0975508315       -1.1041984363
 C         7.3778960182        1.0649324903       -0.0178015296
 C         8.8282913529        0.5129702741       -0.0153047173
 C         8.5523490877       -0.5700298206       -1.2158293343
 C         7.9623661679       -1.9854060408       -0.8274192298
 O         6.4530817889        0.6942583196        0.7222831558
 O         8.6029851677       -0.1917679461       -2.3359743531
 C         9.7975192238        1.5939253857       -0.5438371859
 C         9.3584889416       -0.1191743820        1.2904185660
 C         7.7595280110       -2.9311841553       -2.0261340485
 C         6.4663932092       -2.4886044616       -2.8429867905
 C         6.4302871758       -2.1885598135       -4.3341393045
 C         4.9761024060       -1.7587403170       -4.8111113362
 C         4.7108828524       -0.5215753083       -5.7022242726
 C         7.4739936349       -1.2393083876       -4.7572140077
 C         6.8041421733       -3.7069820229       -5.0074445972
 O         5.4478067146       -2.5203754552       -2.1951899331
 O         4.1425865619       -2.6059910874       -4.6094388741
 C         3.2146411043       -0.3664611523       -5.8926968935
 C         2.3778781376        0.1174532620       -4.8062493679
 C         0.8112779142       -0.0200706599       -4.8051569646
 C         0.4423449781       -1.1042204676       -3.6851483889
 C        -1.0639953213       -1.4607048712       -3.4811203840
 O         2.9260462961        0.6795311820       -3.8156717803
 O         1.2530015779       -1.6468363098       -2.9726189076
 C         0.2441691771        1.4210496740       -4.4548297534
 C         0.3249087707       -0.5255520458       -6.1716631331
 C        -1.2278755140       -2.0440857132       -2.1342681750
 C        -1.0689361060       -0.8329100928       -1.0176997275
 C        -1.6183014780       -1.1033716408        0.4072817999
 C        -2.4588384901        0.2286963572        0.7920801686
 C        -2.1546105111        1.0007665038        2.0710414581
 C        -2.5557965189       -2.3956765946        0.4788848313
 C        -0.4655714487       -1.3189856361        1.4325518366
 O        -0.4017685365        0.1461202032       -1.3130261303
 O        -3.3832488524        0.5839578865        0.0438574342
 C        -3.1300696147        2.1208705451        2.2371658297
 C        -2.5916657741        3.2174418592        3.1278207882
 C        -3.5247692856        4.5059858559        3.3892771074
 C        -4.9704701006        3.9767894648        3.7225228793
 C        -5.1773058778        3.2908664046        5.0895216758
 O        -1.5264236871        3.0177950191        3.7032566160
 O        -5.8487138542        4.0207321206        2.9047072138
 C        -2.8582519234        5.1777019516        4.6137738439
 C        -3.5756919060        5.4406682764        2.1659366814
 C        -6.5152107382        2.4880361165        5.2167802537
 C        -6.1727446670        0.9583476086        5.2697169710
 C        -7.3120981340       -0.0432803080        5.1128238038
 C        -8.5860280382        0.4718253801        4.3209785574
 C        -8.9411143962       -0.4652774047        3.1207599195
 C        -6.7894614603       -1.4605319228        4.7186601737
 C        -7.7924045920       -0.1454545712        6.5671222372
 O        -5.0538081038        0.5984449387        5.5588584393
 O        -9.0868843258        1.5516440852        4.5611586228
 C       -10.0985227792        0.0169229954        2.2185217486
 C       -10.6240824846       -1.0805683749        1.2748803654
 C       -11.9918715852       -1.0507395577        0.3619093247
 C       -11.6781835278       -1.7316828238       -0.9349542180
 C       -10.5536284539       -1.0436208325       -1.7939520637
 O        -9.9725265862       -2.0781472173        1.2421264820
 O       -12.2048081780       -2.7364116227       -1.3412563478
 C       -13.0738081694       -1.7655339324        1.1358802938
 C       -12.4475346441        0.4654506664        0.1228146364
 H         3.1420653804        0.2806639617        2.6893838471
 H         3.2011888538       -1.3639297707        2.1698205255
 H         4.6050363158       -0.4267064035        2.3053955960
 H         5.7117681123        2.9090112771       -2.3402162735
 H         5.5298856015        3.3288839331       -0.6677701063
 H         2.0718416626        2.6408872946       -0.9579804957
 H         1.3966141417        1.2763253589       -0.0382844788
 H         2.0813743711        1.1444181700       -1.7089373651
 H         4.4732693478        2.4184906387        1.8691890824
 H         3.8380004694        3.4602397774        0.8163606188
 H         2.7011596779        2.4467728352        1.6145217308
 H         7.5513003383        1.6196913846       -2.0659766724
 H         7.7408554014        2.9105455256       -0.7104338058
 H         8.3717851246       -2.5828494875        0.0025131618
 H         6.8443637436       -1.7709710048       -0.4208759242
 H         9.7610584975        1.6807676995       -1.5967355769
 H        10.8409795132        1.3107419691       -0.3581353697
 H         9.6299953524        2.6300542929       -0.1163807309
 H        10.2598451599       -0.6932213918        1.1061547835
 H         9.5887571185        0.6532451803        1.9419042079
 H         8.6166960656       -0.8331721566        1.6259933659
 H         7.6042664396       -3.9268480846       -1.7195233354
 H         8.6640705616       -2.8031580669       -2.6563345680
 H         5.1850504268        0.3031853845       -5.1664550005
 H         5.2800202015       -0.8145834696       -6.6255087487
 H         7.2899648968       -0.1615004742       -4.5151404538
 H         7.4478294263       -1.1660972605       -5.8225923864
 H         8.5145703049       -1.5252998501       -4.4623360270
 H         7.6329172182       -4.1699701336       -4.4917642471
 H         5.9164737507       -4.2439127423       -4.9440837818
 H         7.0727656902       -3.7770313802       -6.0603448758
 H         3.2492078550        0.2275614074       -6.8614418739
 H         2.8802617566       -1.3383175469       -6.3648277238
 H        -1.5402107167       -0.5270490045       -3.5477206594
 H        -1.4625021653       -2.1291903507       -4.2663393025
 H         0.5717041524        1.7287994949       -3.5047172630
 H        -0.8250918797        1.2618102257       -4.3343109097
 H         0.2533384310        2.2068883917       -5.2123556922
 H        -0.7204926738       -0.5372168005       -6.2436185205
 H         0.7386565396        0.2556365159       -6.8668188067
 H         0.9179500314       -1.4765531237       -6.4073690658
 H        -0.5004459929       -2.8355873786       -1.8014354956
 H        -2.2878699279       -2.3385868889       -2.1226861832
 H        -2.1992266678        0.2847274221        2.8853183755
 H        -1.1230880470        1.3259636295        2.1637743838
 H        -2.7549586160       -2.5579299448        1.5036853149
 H        -2.0228717308       -3.3015245781        0.2649856015
 H        -3.5344642324       -2.1695277339        0.0599873796
 H         0.1337964180       -2.0667310366        0.9541068925
 H         0.0449457910       -0.3910834334        1.6461996933
 H        -0.9008987431       -1.7183034194        2.3564034975
 H        -3.3538526835        2.5309811114        1.2443184209
 H        -4.0241065195        1.6193543591        2.6144492094
 H        -4.4310504696        2.5932042622        5.2764390600
 H        -5.2054464443        4.0406029257        5.8643962612
 H        -1.7983639635        5.1762375837        4.4605580196
 H        -3.0081278005        4.6616564560        5.5643632034
 H        -3.2317471014        6.1542130530        4.6723379870
 H        -4.4622063315        5.2388267905        1.5653215016
 H        -3.6124059133        6.4613920889        2.3922414440
 H        -2.6524155986        5.0967884973        1.5373957383
 H        -7.0503437236        2.8133368230        4.3862122122
 H        -7.0779836262        2.6624742197        6.1114270699
 H        -8.0573336314       -0.8152442574        2.4417764717
 H        -9.0237266495       -1.5534907145        3.4708942482
 H        -5.9180054544       -1.7124507594        5.3674020045
 H        -6.5394390731       -1.5818661327        3.7079014299
 H        -7.5846629867       -2.2068013192        4.9145904866
 H        -8.0865131434        0.8751620513        6.9029619830
 H        -8.6901098048       -0.7134268599        6.7428286937
 H        -6.8924458618       -0.5923784900        7.0721690211
 H       -10.9111791737        0.3443029049        2.8007847572
 H        -9.8622166702        0.9413380735        1.6878409625
 H        -9.7964031745       -0.4996830223       -1.3086009570
 H       -10.0209793481       -1.6243170507       -2.5439062554
 H       -11.1255418575       -0.3418468124       -2.3740416209
 H       -13.0909023935       -2.7616718642        0.7264570290
 H       -14.0052834051       -1.4545143096        0.7965748114
 H       -12.9194706703       -1.5013756023        2.2112179531
 H       -13.5184689122        0.6223646545        0.1616660523
 H       -12.0091548553        1.0657553837        0.8893208263
 H       -12.1050936317        0.8756717924       -0.7994177891
 Na        3.3743841292       -1.3190830216       -2.4221628520
