155

 C         4.4391944032       -0.6916775595        2.0524157574
 C         3.7132310809       -0.3008639629        0.8699766075
 C         3.3824346033        1.1513103442        0.2924905848
 C         4.5618660046        1.4697366514       -0.5753248360
 C         5.4219087628        2.6223064523       -0.6984697281
 C         2.1467479746        1.3539944040       -0.6621520754
 C         3.3080166970        2.1226861193        1.4760759559
 O         3.2588086416       -1.1423490301        0.1381528607
 O         4.8697512645        0.5981479791       -1.3686071019
 C         6.8882189778        2.1492495955       -0.9342072840
 C         7.3799334119        1.2496589579        0.3152634307
 C         8.7675794940        0.5149308203        0.2620108771
 C         8.8984795697       -0.4683779921       -1.0353473233
 C         8.3775641070       -1.8741790073       -0.8481411500
 O         6.6652257545        1.3278420990        1.2744636172
 O         9.3169182676       -0.0303568551       -2.1116165537
 C         9.9094259519        1.5734735683        0.0700664478
 C         8.8685127779       -0.3806654707        1.5226907224
 C         8.0350145788       -2.6167390454       -2.2218199800
 C         6.5531340089       -2.2055584730       -2.6879617736
 C         6.4578914386       -1.8750784179       -4.1778231650
 C         4.9275618796       -1.6829421900       -4.5862820860
 C         4.4845541328       -0.5220909663       -5.4425640196
 C         7.3869192595       -0.7511851194       -4.6688864551
 C         6.9730819194       -3.2575591284       -5.1101463621
 O         5.6100003634       -2.1170783737       -1.9245023075
 O         4.0972378979       -2.4497332708       -4.0721039462
 C         3.0121006651       -0.4805552329       -5.6286530725
 C         2.1903777662        0.2890548357       -4.5374367724
 C         0.6519172046        0.1455906479       -4.7162286660
 C         0.1656985317       -1.0543072462       -3.7411058465
 C        -1.3724311198       -1.4401978965       -3.8164728943
 O         2.6785395247        0.9580688943       -3.6616187057
 O         0.9481403775       -1.7162323062       -3.0683601848
 C         0.0001548483        1.4375875459       -4.2555139418
 C         0.2067276545       -0.1850957685       -6.1432908933
 C        -1.7865848625       -1.9301523987       -2.4728544127
 C        -1.3776404516       -1.0014387040       -1.3484249326
 C        -1.6669241920       -1.2851321403        0.1193671092
 C        -2.5886174637       -0.0758796476        0.6119845077
 C        -2.1231638352        0.7350680815        1.8313768501
 C        -2.3806007161       -2.5933422703        0.3395929077
 C        -0.3480307108       -1.2276099663        0.9286921379
 O        -0.7937558970        0.0267682327       -1.6164779889
 O        -3.6582633378        0.0882413022        0.0141371439
 C        -3.1258051020        1.8543177426        2.1486304880
 C        -2.5574975556        3.0947967178        2.7061233654
 C        -3.4674859239        4.2985168455        3.0575537725
 C        -4.9693848754        3.7826077929        3.3561444882
 C        -5.1156455667        3.3281892152        4.7609706652
 O        -1.3802330069        3.1489213062        2.9835878579
 O        -5.8739560882        3.8449676489        2.5768367328
 C        -2.8633696549        5.0506255380        4.1451102279
 C        -3.5673875805        5.0899729733        1.6831763710
 C        -6.3224499313        2.4183327571        5.1002425813
 C        -6.0181982851        0.9473926340        4.8470991686
 C        -7.1499673509       -0.0070711076        5.0888646110
 C        -8.3517679575        0.3361720540        4.0469569931
 C        -9.0079709340       -0.8415316648        3.3486770928
 C        -6.5643705391       -1.4248771404        4.7517925346
 C        -7.7714541894       -0.0825718179        6.5655564768
 O        -4.8583723224        0.6141191723        4.5088655999
 O        -8.7233237506        1.4932902352        3.9221097666
 C       -10.2240775340       -0.3911459141        2.4820734070
 C       -10.3771526403       -1.1691304670        1.1286188164
 C       -11.8549725900       -1.0271419485        0.3373685987
 C       -11.8270053689       -1.7882864206       -1.0258788094
 C       -10.8501444140       -1.2588369214       -1.9909577047
 O        -9.5340686380       -1.9857187699        0.8185724050
 O       -12.6194864000       -2.6505968426       -1.2587353822
 C       -12.8564085043       -1.6259246324        1.2306894753
 C       -12.0734891365        0.4766456407        0.1401106817
 H         4.2660303596       -0.1892263666        2.9869369038
 H         4.3296790498       -1.7994337322        2.2290092127
 H         5.5216417589       -0.4249820167        1.9675584820
 H         5.2150404269        3.2055117739       -1.6649840872
 H         5.3776183921        3.3596290526        0.1580837929
 H         1.8574767004        2.4371997191       -0.6545619673
 H         1.2710223634        0.9535291771       -0.2681616059
 H         2.4203807135        1.0010219684       -1.6743391603
 H         4.1618866449        2.2460429421        2.1233951264
 H         2.9724128844        3.1073220168        1.1075817841
 H         2.5035208730        1.8059873766        2.1540514569
 H         6.9541677767        1.5852643098       -1.7979071653
 H         7.5782950185        2.9489541580       -1.0950249821
 H         9.0856596306       -2.4768934977       -0.2028029682
 H         7.4764075208       -1.8968846912       -0.3737712931
 H         9.9669119185        1.9307309368       -0.9423401843
 H        10.9253452989        1.2822841421        0.3893997810
 H         9.7118424173        2.3982248976        0.7399021358
 H         9.7833162241       -0.9621806485        1.4588825997
 H         8.8176643292        0.1990016871        2.4542295956
 H         7.9865841865       -0.9364164003        1.6475220895
 H         7.9925193571       -3.7077766456       -2.3812072759
 H         8.7616871794       -2.1901197887       -2.8893741025
 H         4.6373883800        0.4361151381       -4.8609734972
 H         5.0800967067       -0.6031414677       -6.3970463332
 H         7.3624344779        0.1621173812       -4.0851055805
 H         7.2747517824       -0.6352418340       -5.7541992884
 H         8.4523382613       -0.9893965346       -4.5634500942
 H         8.0338706299       -3.4446500498       -5.0584819802
 H         6.4853173254       -4.1431249322       -4.7889748462
 H         6.7055302238       -3.1352533813       -6.1334937304
 H         2.8061282195       -0.3774825798       -6.6770595682
 H         2.6659302903       -1.5166302171       -5.4037287302
 H        -1.8950729716       -0.6488449021       -4.3484490672
 H        -1.3044483887       -2.1234641917       -4.6172720487
 H         0.2071673921        1.5733661264       -3.2045641648
 H        -1.0906403855        1.4282252840       -4.4222837907
 H         0.4743716943        2.2292881542       -4.7058888766
 H        -0.8392012416       -0.3054857819       -6.0956761491
 H         0.4770493357        0.6463688341       -6.8492777432
 H         0.4911647005       -1.2273924012       -6.4235352177
 H        -1.2180277538       -2.8207045959       -2.1180188236
 H        -2.8912259087       -2.0715100490       -2.3225751465
 H        -2.0705681356        0.1604946479        2.7467694294
 H        -1.1791775087        1.2583777344        1.6056566439
 H        -2.3330822517       -2.9045748917        1.4325090227
 H        -2.0780057723       -3.3400226940       -0.4143742328
 H        -3.4174518375       -2.4816168100       -0.0106942271
 H         0.4376948462       -1.7841984500        0.4819714369
 H        -0.0239818380       -0.2140896290        0.8911145909
 H        -0.5810653573       -1.6127339469        1.9404182121
 H        -3.5577570641        2.0834554419        1.1950073776
 H        -3.7518735904        1.3873758090        2.8937793784
 H        -4.1279375414        2.8457982402        5.1438608683
 H        -5.3192756302        4.2716279154        5.3485539431
 H        -1.7838653332        5.0459668779        4.0987495454
 H        -3.1787519425        4.6540363296        5.1343234826
 H        -3.0914043134        6.1278600652        4.1698645768
 H        -3.2971332432        4.4455446663        0.7831171374
 H        -4.6492015299        5.3426928303        1.6070690414
 H        -3.0730457963        6.0347550619        1.7376913565
 H        -7.1836443088        2.7305189908        4.4469011411
 H        -6.6802385521        2.6091970898        6.1166531002
 H        -8.3166722215       -1.1661519167        2.6201052480
 H        -9.0656937692       -1.6689018028        3.9555316666
 H        -5.5988314288       -1.5259218101        5.2176338614
 H        -6.3599013135       -1.4953593648        3.6431804956
 H        -7.1610798012       -2.2346144225        5.1441281148
 H        -8.0893630937        0.9190181638        6.8186789041
 H        -8.5325345639       -0.9030757960        6.6090170144
 H        -7.0010992173       -0.2189950260        7.3094212236
 H       -11.1998250785       -0.5038318390        3.0818470366
 H       -10.0325583202        0.7040691773        2.4564633494
 H       -10.2913076659       -0.4119141338       -1.4913791662
 H       -10.1307835419       -2.0120361732       -2.2771836012
 H       -11.1974186991       -0.7513085668       -2.8204527726
 H       -12.3993626794       -2.6263167415        1.4667204744
 H       -13.8979545752       -1.5917252831        0.7613259030
 H       -12.8408669190       -1.1301805668        2.1661821925
 H       -12.0284458798        0.6932122770       -0.8507948640
 H       -13.0861224553        0.7206646212        0.5181966987
 H       -11.3476765704        1.0250739749        0.6535292173
 Na        3.2972247670       -1.1758352861       -2.1498284307
