155

 C         3.5714004616       -0.9758138780        2.3172101156
 C         3.3743032533       -0.3768299388        0.9508557260
 C         3.4057157733        1.2367118441        0.8523836283
 C         4.6933806802        1.6157807991       -0.0883791639
 C         5.5928024529        2.7908802304        0.2672190729
 C         2.1020520518        1.7546575878        0.1309017919
 C         3.4388784385        1.9836855841        2.2767960664
 O         3.1095862118       -0.9532279228       -0.0549400705
 O         4.7460013910        0.9554795559       -1.1300450934
 C         7.0174533064        2.3021857334        0.0123523430
 C         7.5202839375        1.2506554770        0.9145443563
 C         8.9735122978        0.6356593003        0.7102537468
 C         8.9100859346       -0.1467669011       -0.6907909535
 C         8.1460123051       -1.4797882008       -0.6629464580
 O         6.7927127629        0.7975991713        1.7884025711
 O         9.2998041460        0.2176656888       -1.7618369630
 C        10.0597133541        1.6984162860        0.6937812541
 C         9.2216738798       -0.3893292084        1.8234733847
 C         7.9028906484       -1.9766393418       -2.0594191478
 C         6.6040532213       -1.4886816293       -2.6208660962
 C         6.4154094216       -1.4551632250       -4.1813347170
 C         4.9106268285       -1.3842368516       -4.6536491423
 C         4.4692220467       -0.6280830032       -5.9855621768
 C         7.3136404627       -0.4175813316       -4.8660460154
 C         6.9227386418       -2.8111668132       -4.7670773884
 O         5.7033476379       -1.1919643993       -1.8490947972
 O         4.1001128405       -2.1517824492       -4.0687712822
 C         2.9519153230       -0.4147344039       -6.0170289235
 C         2.3040231802        0.2362808675       -4.7783002559
 C         0.7309166057        0.1486336106       -4.6449324363
 C         0.3732285538       -1.0532910672       -3.7371209582
 C        -1.1137507158       -1.5290173918       -3.7167290678
 O         2.9816231729        0.8604367198       -3.9613427162
 O         1.2083101930       -1.6203411348       -3.0416420385
 C         0.3456498689        1.5065532406       -3.9797826436
 C         0.0541039644       -0.0417924134       -6.0309819636
 C        -1.6351875711       -2.3448266883       -2.5064897305
 C        -1.4892504846       -1.3472299303       -1.3032086646
 C        -2.0399030998       -1.7650408494        0.0382643336
 C        -2.8565857534       -0.4848376367        0.6170118435
 C        -2.1314954460        0.8424166645        0.9345682844
 C        -3.0402835762       -2.8912045662        0.0440845681
 C        -0.8330153110       -2.1186622725        1.0050438028
 O        -0.8648155838       -0.3040602955       -1.4176664934
 O        -4.0043891227       -0.5653608774        0.8807200721
 C        -3.0123747586        2.0402378803        0.7939433986
 C        -2.6307455009        3.0270179979        1.8568922595
 C        -3.5542963293        4.2024341016        2.3685093646
 C        -4.8463157794        3.5100782535        2.9584378604
 C        -4.8832767263        3.1629295837        4.4831701691
 O        -1.5675838635        2.8751421046        2.4294946497
 O        -5.8124017755        3.2562779194        2.2444652961
 C        -2.7455201667        4.9891808671        3.3702158519
 C        -3.9419155485        4.9875918245        1.0642514431
 C        -6.0640729943        2.3143018324        4.9024059860
 C        -5.8823162548        0.8179069466        4.5861981053
 C        -7.1326397347       -0.0600005881        5.0153843402
 C        -8.2426330322        0.0944594376        3.8522321241
 C        -8.5217809197       -1.1790969948        3.0132296411
 C        -6.6463201008       -1.5182955444        5.1297299213
 C        -7.8330455009        0.3845782069        6.3115873019
 O        -4.8358083511        0.3374747330        4.1812958598
 O        -8.8200861452        1.1288114061        3.6608243144
 C       -10.0358261992       -1.1165831178        2.4436388460
 C       -10.2101555672       -1.2681872363        0.9708805929
 C       -11.6403877725       -1.0830412390        0.4630823919
 C       -11.9130401193       -1.8331256926       -0.9369454845
 C       -10.9545009821       -1.6774309909       -2.1115540880
 O        -9.2258056000       -1.3452202870        0.2370219912
 O       -12.9705656342       -2.4443117422       -1.0267027300
 C       -12.7318238833       -1.4998813854        1.4243227083
 C       -11.7845414307        0.5143072035        0.1322762810
 H         2.8840128975       -0.5267168708        2.9846114528
 H         3.5062401200       -2.0371499659        2.3252297946
 H         4.5038050562       -0.7319300549        2.8230611964
 H         5.4845976521        3.6163639156       -0.4198052894
 H         5.5009914030        3.0859813092        1.3032044763
 H         2.3011237129        2.6928085459       -0.1789989663
 H         1.2680662700        1.6026792969        0.8751676259
 H         1.8028806187        1.1551642581       -0.6862317579
 H         4.2564707514        1.7313336930        2.9251632593
 H         3.4831691049        3.0601805823        2.1930790020
 H         2.4096705827        1.7913830593        2.7888516300
 H         7.2595913822        1.8916063858       -0.9807520241
 H         7.7993455220        3.0937184884        0.0883942680
 H         8.7140981379       -2.2298493109       -0.0009862188
 H         7.1292770702       -1.4060069110       -0.2612205587
 H        10.2404982369        2.1426501575       -0.2226474465
 H        10.9568014590        1.2146506527        1.0910253589
 H         9.7127116024        2.5497214955        1.3165807100
 H        10.1649955267       -0.9856063429        1.7583704342
 H         9.3395050551        0.1187023897        2.7459463884
 H         8.4504791907       -1.1400430381        1.7461252175
 H         7.6384433449       -3.0457934013       -1.9819913412
 H         8.8205115081       -1.9267811272       -2.6337300035
 H         4.8293375996        0.3988097800       -6.0769953260
 H         4.8452914964       -1.0887141546       -6.9258361520
 H         6.8125696500        0.5255400862       -4.6744202124
 H         7.3637188275       -0.4858961079       -5.8976264214
 H         8.3051376013       -0.4952273877       -4.3788966772
 H         7.9956869455       -2.9475824823       -4.4206290110
 H         6.3579733487       -3.6755989099       -4.4013860194
 H         7.0409754457       -2.8264813077       -5.8929101341
 H         2.6904217181        0.2375294262       -6.9009482586
 H         2.3325589597       -1.3934949530       -6.0580314296
 H        -1.7473407478       -0.7144215497       -3.9924994950
 H        -1.0269573433       -2.1488619253       -4.6047554600
 H         0.4427291006        1.3623671129       -2.8976866314
 H        -0.7246195210        1.7448141503       -4.2309749742
 H         0.9810301919        2.3258518675       -4.4115559226
 H        -1.0059450911        0.1691680912       -6.0431136229
 H         0.4792270209        0.6632527301       -6.7361835581
 H         0.2574526556       -0.9996366892       -6.5483994141
 H        -0.9586038268       -3.2008668463       -2.2427036995
 H        -2.6344351616       -2.7676074897       -2.6558755317
 H        -1.7832327399        0.8133756705        1.9793567661
 H        -1.2332232201        0.9631341170        0.2968388878
 H        -3.5850699575       -2.8885540248        0.9218069262
 H        -2.6821059936       -3.8645307467       -0.0033749738
 H        -3.8052964120       -2.7031724631       -0.6863286734
 H        -0.3765374799       -3.0096133327        0.6635191345
 H        -0.1788532366       -1.2648920064        1.1471896249
 H        -1.2486614759       -2.3111897456        2.0376545605
 H        -2.9175697234        2.5045289201       -0.2181478560
 H        -4.0624284203        1.6950646975        0.8568044833
 H        -4.0067348419        2.6121473536        4.6308268150
 H        -4.7126724599        3.9676885272        5.1403382245
 H        -1.7279610257        5.1170758410        3.0546304890
 H        -2.5501696030        4.3891382085        4.2763911197
 H        -3.0216524785        5.9432472941        3.7463522748
 H        -4.1068258010        6.0223208216        1.2724410527
 H        -3.1829295892        4.9224163524        0.3843254686
 H        -4.9029116728        4.5394764349        0.6871512287
 H        -7.0282566219        2.6602087022        4.6194043266
 H        -6.0989743288        2.3883458161        5.9566919595
 H        -7.9057214110       -1.1493990073        2.0691422571
 H        -8.5247850502       -2.0329518505        3.6175672454
 H        -5.8280247160       -1.5445296928        5.8673736830
 H        -6.2887170560       -1.8556747310        4.1731864389
 H        -7.4842398259       -2.1642993304        5.4275236552
 H        -7.6576908541        1.4173075816        6.5786926346
 H        -8.8600989283        0.2898963640        6.5533228909
 H        -7.2760047427       -0.2152802002        6.9981476014
 H       -10.5511068467       -2.0074456416        2.8262470127
 H       -10.5304545583       -0.2764275309        2.8333789032
 H       -10.9865870430       -0.6794776177       -2.4936085749
 H        -9.8763009512       -1.9285445519       -1.9053828685
 H       -11.2841634293       -2.3536539930       -2.9013129967
 H       -12.8357442660       -2.6042944076        1.3901100183
 H       -13.6320027158       -1.2406297857        0.9700467387
 H       -12.7429063914       -1.1341243354        2.4812925353
 H       -12.4922879799        0.9368099907        0.9058737619
 H       -10.7895868571        0.9973284033        0.2862250572
 H       -12.1470920249        0.6906366374       -0.9001255229
 Na        3.2726350141       -0.5895516486       -2.2654913476
