155

 C         3.2364376653       -0.8924694288        2.5518684747
 C         3.2749835204       -0.2599470148        1.1815497645
 C         3.2573119807        1.3415803510        1.2176544728
 C         4.4837174291        1.8302606367        0.4803563604
 C         5.4571825962        2.7657855266        1.2646218333
 C         1.9106886067        1.7992874421        0.4201125617
 C         3.2028844816        1.9772797944        2.5780945125
 O         3.1815000309       -0.7900758568        0.0781996445
 O         4.5761125943        1.7339770913       -0.7861473515
 C         6.9182119195        2.6099259826        0.7188441899
 C         7.3373905363        1.1618305113        1.0241301331
 C         8.7934027756        0.6745740201        0.6980440380
 C         8.8307204289       -0.2380757078       -0.6269739743
 C         7.9747585321       -1.4946341982       -0.5788476481
 O         6.5592880789        0.3972694833        1.5965295772
 O         9.4245732349        0.0568947636       -1.6478008194
 C         9.8311348699        1.7964388877        0.6791746293
 C         9.1558569940       -0.2816541015        1.9342381157
 C         7.8292325780       -2.0262831173       -2.0827605542
 C         6.5771290072       -1.6279987279       -2.7008106701
 C         6.5082604177       -1.5389971519       -4.3356141816
 C         4.9731874774       -1.3617723143       -4.8025950155
 C         4.5921950691       -0.6207813207       -6.0644400018
 C         7.3438384487       -0.2516352843       -4.8930961935
 C         7.0986278963       -2.6777423214       -5.0939754390
 O         5.6971883501       -1.1544189205       -2.0245765788
 O         4.0958420371       -1.9381826624       -4.1730313167
 C         3.0070311906       -0.4857052561       -6.2423325084
 C         2.3568178691        0.3172204946       -4.9550764913
 C         0.8665308934        0.1094984773       -4.6864436300
 C         0.7012851282       -1.0962286307       -3.6377259931
 C        -0.5416149332       -1.9678421196       -3.7485917967
 O         3.0794466000        1.0057843535       -4.2384473905
 O         1.4870906399       -1.1820250889       -2.7760908894
 C         0.3772026937        1.3270051292       -3.8009995187
 C         0.1450684171       -0.0292310901       -6.0065424495
 C        -1.1413928841       -2.6222500024       -2.5233631037
 C        -1.3307858939       -1.4922706202       -1.3674409861
 C        -2.1755717078       -1.9246505180       -0.1805267790
 C        -3.0303266233       -0.7304133377        0.4762973376
 C        -2.3251557024        0.6649864294        0.7905803176
 C        -3.2050082035       -3.0536082638       -0.4069351348
 C        -1.2611343843       -2.3210087136        1.0145952917
 O        -0.6469295893       -0.5030910013       -1.3783041941
 O        -4.1631790235       -0.9054080080        0.8696552775
 C        -3.2766114293        1.8938506431        0.8698414653
 C        -2.7103484876        2.9909054907        1.8327853259
 C        -3.7245528289        4.2711646827        2.0739743218
 C        -4.8915726656        3.4325410410        2.6561371516
 C        -4.8017527181        2.9636411621        4.1400740400
 O        -1.6514823626        2.9387307673        2.3710252568
 O        -5.7812567872        3.1297608286        1.8852319132
 C        -3.0899072127        5.2804239793        3.0884589441
 C        -4.0162932594        4.8400032150        0.6902806925
 C        -6.0788382754        2.2533786934        4.5317931007
 C        -5.8932386403        0.6975141794        4.6111402047
 C        -7.0469680921       -0.2164578855        5.0494450579
 C        -8.1380988165        0.0036378359        3.8759373390
 C        -8.2458108419       -0.9912013121        2.7377313670
 C        -6.4852312940       -1.6321706391        5.3087679251
 C        -7.7265997539        0.3185650402        6.3639920495
 O        -4.8522295245        0.1878152799        4.2515039922
 O        -8.7697919898        1.0526849252        3.9105757511
 C        -9.7535690545       -1.1139988952        2.4126663919
 C       -10.0647976942       -1.2081620099        0.8818370895
 C       -11.5124574583       -0.9146853416        0.4140368135
 C       -11.8640008506       -1.8117561293       -0.8640941382
 C       -11.1750203230       -1.5645710675       -2.2729696890
 O        -9.2359842346       -1.4792388820        0.0250571692
 O       -12.7758507920       -2.6011933603       -0.7379149740
 C       -12.6080711858       -1.2011909712        1.5345297028
 C       -11.6845796509        0.4920101805       -0.1138680352
 H         2.4570679661       -0.4060154078        3.1400944719
 H         3.0267029658       -1.9628775048        2.5427592106
 H         4.1195469981       -0.8344843984        3.2011681136
 H         5.1200425402        3.7331863127        1.0027001638
 H         5.3788182588        2.5478995584        2.2863883766
 H         1.3769602209        2.3536569934        1.1781638284
 H         1.4207883934        0.8560924242        0.0424670808
 H         2.1275681436        2.4783542442       -0.4059048228
 H         4.0685530986        1.6099788737        3.1265269898
 H         3.1844520627        3.0661381874        2.4933923095
 H         2.2246483339        1.7519210593        3.0942439198
 H         6.8793780851        2.6995417764       -0.4259737627
 H         7.8124889521        3.2272667764        1.0897133445
 H         8.4702736438       -2.2716005666        0.0484531030
 H         6.9569111633       -1.2655845469       -0.1427947970
 H         9.5731063999        2.5600154657       -0.0134684611
 H        10.7760527989        1.4080909967        0.3462402305
 H         9.8963497780        2.2814555592        1.6874466161
 H        10.0977006967       -0.9120525268        1.8242253332
 H         9.1751675816        0.3348522700        2.8199770714
 H         8.3657290824       -1.0659889607        2.1582965568
 H         8.0422274544       -3.1053963804       -1.9585049245
 H         8.6979665751       -1.7289259011       -2.6945133273
 H         5.0714946993        0.3112342558       -6.0577963569
 H         4.9378480283       -0.9556540696       -7.0206493051
 H         7.1636580346        0.6245883016       -4.2658313261
 H         7.0078832814       -0.0529149720       -5.8620085517
 H         8.4128680226       -0.5087604549       -5.0625145072
 H         8.1544804735       -2.6108007239       -4.9805882501
 H         6.6841470693       -3.6324231274       -4.9396895229
 H         6.9501712831       -2.5772482934       -6.1560311256
 H         2.6635230193        0.1454427890       -7.0762609383
 H         2.5977565769       -1.5288455298       -6.2570510157
 H        -1.2797992569       -1.3026071527       -4.1602930622
 H        -0.2504824913       -2.7588669254       -4.4979816537
 H         1.2138742492        1.6885719292       -3.2670529021
 H        -0.3017670706        0.8949622092       -3.0926891431
 H        -0.2223049019        2.0272097416       -4.4118033334
 H        -0.9690900801        0.1224020352       -6.0102037590
 H         0.5584434489        0.5906615066       -6.7116374578
 H         0.2799540897       -0.9854680225       -6.4175655560
 H        -0.5619941625       -3.4704218471       -2.1514236797
 H        -2.0643611270       -3.1041166148       -2.7984552477
 H        -1.7951421295        0.5174058085        1.7401826191
 H        -1.4401761759        0.8266365972        0.1342478802
 H        -3.6402378625       -3.3477463876        0.5454241791
 H        -2.8101131226       -4.0447894826       -0.7745904207
 H        -4.1319266546       -2.7616762295       -0.9821498528
 H        -0.7807960347       -3.2505382421        0.8452857855
 H        -0.4645744708       -1.5561987448        1.1213813569
 H        -1.8598168920       -2.4083159590        1.9533209007
 H        -3.4685468135        2.3191850763       -0.1546102320
 H        -4.3239241221        1.5764608420        1.0629017632
 H        -4.0359387759        2.2214061490        4.1404729255
 H        -4.3818597786        3.7017135714        4.7940009624
 H        -2.5670765566        6.2044834952        2.6611821944
 H        -2.3471689202        4.8419152750        3.8067206131
 H        -3.7802601707        5.7910910836        3.7993939599
 H        -3.2078443802        4.7485867675        0.0148148307
 H        -4.8995898960        4.3727888602        0.2776259644
 H        -4.3359881774        5.9056076676        0.8942461710
 H        -6.9131903773        2.3990434579        3.7875314770
 H        -6.5204512972        2.6816628941        5.4635180289
 H        -7.7821277493       -0.3991505591        1.8712105523
 H        -7.8296045638       -2.0458643368        2.9385128741
 H        -5.9468577470       -1.7212817576        6.2786960535
 H        -6.0541588200       -2.0877411639        4.4667168566
 H        -7.4614510966       -2.1606692019        5.3558110939
 H        -8.8307734306        0.3113172799        6.3402844390
 H        -7.4224704539       -0.1163764549        7.2860311624
 H        -7.5053133089        1.3976407129        6.5033191702
 H       -10.1992637319       -2.0078579901        2.8746115296
 H       -10.1695095272       -0.2806893345        2.8906203176
 H       -11.0633220827       -0.5410279235       -2.5043107680
 H       -10.1096370174       -1.9275848548       -2.3758512775
 H       -11.8021342969       -2.1182654727       -3.0453696165
 H       -12.5323834166       -2.1399057411        2.0412384894
 H       -13.4888571357       -1.4428941717        1.0389704032
 H       -12.9072502985       -0.3156453907        2.1867533689
 H       -12.2542891975        0.5494304279       -1.0992474656
 H       -12.1811909511        1.0747831197        0.6214511751
 H       -10.7291827178        0.9199198768       -0.3126953787
 Na        3.5670021089       -0.0643826346       -2.1413155293
