155

 C         3.2443566954       -0.9508037095        2.5567924504
 C         3.2567154269       -0.0942301202        1.2985229944
 C         3.0501151066        1.5357231149        1.3309485323
 C         4.3828178414        2.0573577053        0.5406761891
 C         5.4073685445        2.8437260768        1.3762535557
 C         1.7506144364        1.8809282143        0.4320134760
 C         2.8089212903        1.9972955434        2.8122899636
 O         3.2938106422       -0.6705201115        0.2364035633
 O         4.4536684727        1.8831807911       -0.6092869663
 C         6.7932963519        2.4496591724        1.0825294333
 C         7.2340627598        0.9229052783        1.1830307081
 C         8.7574552651        0.5789976306        0.8429227199
 C         8.7742547024       -0.2343665908       -0.5827211103
 C         8.0056344484       -1.5919273398       -0.7106323766
 O         6.3722357163        0.0753157843        1.2465915223
 O         9.3445524002        0.2313676976       -1.5120424979
 C         9.6474883699        1.8225360925        0.4957167114
 C         9.3693977489       -0.3590372716        1.9339633305
 C         7.7558036953       -2.0242746318       -2.1889413046
 C         6.5618563394       -1.4493680303       -2.8401406183
 C         6.5816081380       -1.2827938870       -4.3757731369
 C         4.9860409026       -1.3362817334       -4.7984052314
 C         4.5691183258       -0.6566787184       -6.1366515467
 C         7.3904347998       -0.0084741971       -4.7690282860
 C         6.9916280888       -2.7363154495       -4.8562219604
 O         5.6656187284       -1.1254609457       -2.0467939068
 O         4.1441348818       -1.9373304733       -4.1043503892
 C         3.0752579288       -0.3100359122       -6.2634000938
 C         2.5043302816        0.4324223924       -5.0290376925
 C         0.9855157202        0.1884019359       -4.6690820012
 C         0.9077597451       -1.0469244184       -3.6286131874
 C        -0.2740352165       -2.0852059885       -3.7114265795
 O         3.2497820531        0.9478766463       -4.2242915517
 O         1.7475068310       -1.2198120077       -2.6988671000
 C         0.4241731103        1.4926557250       -4.0323389066
 C         0.0701714859       -0.0876798057       -5.8087448309
 C        -0.7854174468       -2.7749094608       -2.3808147580
 C        -1.2443990513       -1.6306390956       -1.3858194893
 C        -2.1884119287       -2.0001915174       -0.1372465152
 C        -3.0054389090       -0.7201968309        0.4396237428
 C        -2.2748794417        0.5315243063        0.8645537047
 C        -3.2121043182       -3.1114354558       -0.5134098843
 C        -1.2473132563       -2.5258226530        0.9785686631
 O        -0.8474792725       -0.4597554841       -1.4225826527
 O        -4.2009055736       -0.7517342863        0.4804528973
 C        -3.2072918623        1.6546706232        0.9573020977
 C        -2.6897789737        2.9217803108        1.6912724302
 C        -3.7302420622        4.1104976876        1.8334872234
 C        -5.0785434770        3.4180875718        2.4837593870
 C        -4.8931481153        2.9473097079        4.0801625552
 O        -1.5644414545        2.9624116667        2.2258033132
 O        -6.1273934854        3.3395175038        1.8965213815
 C        -3.1700635637        5.0709463924        2.8127091283
 C        -4.1142231801        4.7601199770        0.4521578447
 C        -6.1242562507        2.1991928334        4.5965865678
 C        -5.8128391490        0.6795998931        4.6356009095
 C        -7.0591301718       -0.1670536165        5.0589433240
 C        -8.1767175629        0.0692241225        3.9633296762
 C        -8.2849904294       -0.8899995370        2.6901461737
 C        -6.6352251231       -1.7529268669        5.0659349312
 C        -7.5866465579        0.2142202170        6.3973134731
 O        -4.7083396002        0.2057926090        4.4201000109
 O        -8.8878210249        1.0354576704        3.9990389426
 C        -9.7604357874       -1.1632745758        2.2969957309
 C        -9.9898501222       -1.1664252075        0.7832393645
 C       -11.5728494826       -0.8682949732        0.3420193402
 C       -11.9811384637       -1.8617382803       -0.8971906245
 C       -11.1347548186       -1.6408168292       -2.1574049496
 O        -9.1110887119       -1.4702991251       -0.0110287845
 O       -12.6458233123       -2.8515291344       -0.6569872318
 C       -12.5271813275       -1.0299879549        1.4967194470
 C       -11.4966499751        0.6543538448       -0.0275859545
 H         2.3134155060       -0.9122692324        3.0840847094
 H         3.5087470712       -1.9735890953        2.3585379796
 H         3.9362401824       -0.6557666000        3.3337429682
 H         5.3502310920        3.9653116273        1.1941695405
 H         5.1966176973        2.5670693268        2.4564916327
 H         0.9334930868        1.6869585893        1.0819105463
 H         1.7218481972        1.2394951134       -0.4507610355
 H         1.7987413751        2.9075252417        0.1591878751
 H         3.5328768422        1.5369632742        3.4759519722
 H         2.7127136979        3.0955882183        2.9049737335
 H         1.8532909050        1.5384412560        3.0741115183
 H         6.9821948143        2.6815634149        0.0854967130
 H         7.4246068306        2.9611622394        1.7554838226
 H         8.5932331983       -2.4189220795       -0.2991256796
 H         7.1125996112       -1.4616842166       -0.1355630111
 H         9.0699805772        2.5261672179       -0.1375908878
 H        10.6097351026        1.6537181862       -0.0366573415
 H         9.8694987216        2.2941268886        1.4444949743
 H        10.3788584121       -0.5694788231        1.7163953298
 H         9.2081390291        0.0912684173        2.9364664505
 H         8.8710900794       -1.2759636529        2.0616150232
 H         7.7201315541       -3.0842835925       -1.9598408080
 H         8.6868020717       -2.0399030234       -2.7240959310
 H         5.0556023065        0.3720563197       -6.2751154029
 H         4.9052252946       -1.0056928884       -7.1405596995
 H         6.8894676611        0.8661921446       -4.3689026608
 H         7.5926911975       -0.0408823908       -5.8710887314
 H         8.3225282656       -0.1235494686       -4.2655793400
 H         8.0522581925       -2.9865481053       -4.5983069122
 H         6.2165013189       -3.4707004720       -4.5577524952
 H         6.8958962463       -2.8899214739       -5.9571788308
 H         2.9832678836        0.4682924309       -7.0434280347
 H         2.3408944104       -1.1166381194       -6.3860906994
 H        -1.1322989362       -1.5750901301       -4.1982584739
 H         0.1434271304       -2.8498357776       -4.2919232596
 H         1.2157213719        1.7408144920       -3.2670668906
 H        -0.6136275842        1.3975750644       -3.6108184441
 H         0.3913641720        2.1938757922       -4.8513730004
 H        -0.9375865121       -0.2044131170       -5.5764890988
 H         0.0999459477        0.6829814790       -6.6636719881
 H         0.2684298097       -1.1219973617       -6.2610512997
 H        -0.0759905046       -3.3831605018       -1.7988814354
 H        -1.5396683707       -3.5712460251       -2.6592337172
 H        -1.6896033289        0.5267751849        1.8017065358
 H        -1.4415895197        0.6537902443        0.2064773406
 H        -4.0699203825       -3.0852704133        0.1259968644
 H        -2.8806130228       -4.0906009313       -0.5702561714
 H        -3.5920208235       -2.9060953914       -1.4834438183
 H        -0.8718405803       -3.5832096072        0.9346499155
 H        -0.3367155148       -1.9318483569        1.0200986508
 H        -1.8277609419       -2.4307373316        1.8822733474
 H        -3.6190478821        1.8993543802        0.0076074179
 H        -4.1359530763        1.3200752629        1.3828382773
 H        -3.9730166640        2.3459371779        4.2738754040
 H        -4.7415192404        3.9393257100        4.5705148364
 H        -2.4497252366        5.6603020936        2.3703564405
 H        -2.7352941832        4.6593699756        3.6886275571
 H        -3.8660000365        5.7787828015        3.2042979273
 H        -3.8434029851        4.0814126201       -0.3706078341
 H        -5.1627378779        4.9372599235        0.4127918193
 H        -3.6454365184        5.7255282456        0.3011659194
 H        -6.8964378847        2.3889572972        3.9148424128
 H        -6.4666689078        2.5199452604        5.5402632105
 H        -7.8973437158       -0.4338436775        1.8055566618
 H        -7.7615251708       -1.7708482260        2.7884435310
 H        -5.8218098873       -1.7906461422        5.7567276451
 H        -6.2358157324       -2.0116855197        4.0423824379
 H        -7.3856283423       -2.4888936103        5.2971402073
 H        -7.9606044912       -0.6632946445        6.8688552996
 H        -6.8768941047        0.6943168330        7.0921680571
 H        -8.4964843172        0.7764845461        6.3866202354
 H       -10.2824254624       -2.0337404742        2.6689559389
 H       -10.2584440904       -0.2595839187        2.7675915774
 H       -10.7581518922       -0.6009915796       -2.3670425613
 H       -10.2183743174       -2.1694323358       -2.0174118086
 H       -11.5840932634       -2.0578523551       -2.9891071307
 H       -12.5835513272       -2.1225457788        1.7277068832
 H       -13.6249740338       -0.7709378188        1.3762547307
 H       -12.3246272113       -0.5001136730        2.3690907605
 H       -12.2774766366        0.8507680900       -0.7257847619
 H       -11.5476729354        1.4197512398        0.8317905556
 H       -10.5417983056        0.8422454777       -0.6128021294
 Na        3.6908292418        0.0426528075       -2.0383534624
