155

 C         3.3001590200       -0.7920439628        2.5686281441
 C         3.0984296158       -0.0451554077        1.2562250272
 C         2.8279428549        1.5912094776        1.3421664495
 C         4.1849137080        2.0813397086        0.8503516782
 C         5.3077438308        2.5931687315        1.7448507195
 C         1.6582932938        1.8712201577        0.3284297058
 C         2.5190710372        2.0120136399        2.9155713705
 O         3.3688829061       -0.6872251350        0.2619290128
 O         4.4034779122        2.0032242052       -0.4193347359
 C         6.7949245027        2.3708589876        1.2062829330
 C         7.0753776944        0.8358896146        0.9777666894
 C         8.6716456011        0.5507221817        0.7385971425
 C         8.7022814311       -0.2262613898       -0.5903334803
 C         8.1148902017       -1.6840807424       -0.6810889441
 O         6.3170455003       -0.0832295016        1.1487836810
 O         9.1150831383        0.2716984775       -1.6283611778
 C         9.5258151042        1.8631927473        0.7006851356
 C         9.2339006512       -0.3140360836        1.7857921100
 C         7.7266191946       -2.0526255512       -2.1261861365
 C         6.5385727468       -1.3887431791       -2.6589226911
 C         6.4692535165       -1.3529690724       -4.2740114579
 C         4.9149738476       -1.2510088054       -4.8262184553
 C         4.6906816921       -0.3957023941       -5.9930869091
 C         7.3574354079       -0.0686848194       -4.7138380610
 C         7.0820722304       -2.6254931442       -5.0069888756
 O         5.7619665294       -0.8201785969       -1.9287553194
 O         3.9635263384       -1.7225200935       -4.2450032513
 C         3.1395747719       -0.3657747894       -6.2512750529
 C         2.5626529731        0.2200112595       -4.9127826762
 C         1.1330395657        0.1405910009       -4.5312540254
 C         1.0084805686       -0.9769600623       -3.3834273426
 C        -0.0717177865       -2.1217603500       -3.5760987375
 O         3.2947227231        0.8784795411       -4.1755507308
 O         1.8545836405       -1.0699843528       -2.5806827563
 C         0.6881521947        1.4754891888       -3.8819470328
 C         0.2934766052       -0.2395960570       -5.8106034037
 C        -0.2872481068       -2.6145560844       -2.1259821267
 C        -1.1391888726       -1.5939770343       -1.3556333909
 C        -2.0972438573       -2.0571169740       -0.2273589041
 C        -2.9167920956       -0.8729827611        0.2427890713
 C        -2.2447250492        0.2740807740        0.9566903535
 C        -3.0313671083       -3.1218200290       -0.7394405648
 C        -1.2533109795       -2.6831551467        0.9727772936
 O        -1.1143873404       -0.4343240264       -1.6860907614
 O        -4.0924358258       -0.7902069209       -0.1307228694
 C        -3.2850453976        1.4643864743        1.0352817130
 C        -2.7527225995        2.7312159165        1.6553086133
 C        -3.8413588164        3.9270829470        1.8095400573
 C        -5.1905601072        3.5065017438        2.5469742517
 C        -4.9653619380        3.0706150409        4.0099900204
 O        -1.5928530786        2.9927246512        1.8732271944
 O        -6.2314726183        3.6011981050        1.9180382019
 C        -3.1470940613        5.1863306583        2.5296788945
 C        -4.2510869568        4.4323735498        0.3369165997
 C        -6.0797776665        2.1942121002        4.5451784681
 C        -5.7991197166        0.7072488401        4.5820820497
 C        -6.9826131459       -0.2585736717        4.9205279236
 C        -8.1448433933       -0.0198330707        3.8947079048
 C        -8.2859084421       -0.8011313387        2.6703541702
 C        -6.5629334656       -1.7150723167        4.8383089255
 C        -7.5461162106        0.0284465053        6.3918322633
 O        -4.6952401610        0.2174852191        4.5641521254
 O        -9.0182165549        0.8125478833        4.2004253709
 C        -9.7512940516       -0.9715343846        2.3802049872
 C       -10.0546059714       -1.1233429305        0.8312449497
 C       -11.4749264386       -0.8485405278        0.3381568541
 C       -11.8043346459       -1.8612196907       -0.8293211997
 C       -11.0974345129       -1.8206793335       -2.2086606718
 O        -9.1657592044       -1.3697806993        0.0607425693
 O       -12.5118973593       -2.7857657337       -0.5571730292
 C       -12.6144640799       -1.0766272286        1.3623604224
 C       -11.3700788288        0.6663952277       -0.1582307528
 H         2.3974091323       -0.9285234159        3.2470328917
 H         3.7267926885       -1.8214879049        2.4466949711
 H         4.0196594109       -0.2484849402        3.2150434261
 H         5.1040559932        3.6586219047        1.8225619952
 H         5.2559047416        2.1758547125        2.7262198711
 H         1.1032863848        0.8700105595        0.2224975629
 H         2.1262794222        2.0655795665       -0.6206084942
 H         1.0999380796        2.7854326650        0.6657877093
 H         3.3572822932        1.8562403072        3.6199706685
 H         2.2245172149        3.0379353861        2.8195740104
 H         1.7289248539        1.4076114326        3.3106647500
 H         7.0708954010        2.8312590323        0.1647364264
 H         7.4496542059        2.6398347551        2.0925784576
 H         8.9920548726       -2.1319434660       -0.2352815636
 H         7.2680692375       -1.7210273726        0.0797940294
 H         9.6302230951        2.2753264904       -0.3153987094
 H        10.5200454811        1.5254970443        0.9200309761
 H         9.3840048280        2.5338213884        1.5374913158
 H        10.2005418520       -0.7194597112        1.4623053475
 H         9.3303860815        0.1092422721        2.7369431212
 H         8.5093711704       -1.1141422946        2.0394995733
 H         7.8472896836       -3.1084573317       -2.3890346015
 H         8.6172973583       -1.6618457106       -2.6551673587
 H         5.0104996011        0.5922400401       -6.0798560108
 H         5.1945540707       -0.7654866745       -6.8615635053
 H         6.6553096470        0.7514618351       -4.8783018653
 H         7.8714665159       -0.4450461971       -5.5758447887
 H         8.0609105276        0.2984302335       -3.9246772007
 H         8.1341566161       -2.6397525102       -4.8858670520
 H         6.6548837223       -3.5942473272       -4.7304870164
 H         6.8850303350       -2.5604539892       -6.0701759078
 H         2.8618917586        0.2545741883       -7.0774579580
 H         2.6302493946       -1.3115101617       -6.2406412891
 H        -1.0048619082       -1.6367051127       -3.8156377419
 H         0.2131613043       -3.0079753005       -4.2737184189
 H         1.0160506332        1.4645181897       -2.8807247469
 H        -0.3522443070        1.4393523951       -3.9998554980
 H         1.1265419987        2.3472081677       -4.4044224177
 H        -0.8458980064       -0.1559945443       -5.6774615765
 H         0.4387620691        0.4679359000       -6.5696641559
 H         0.3838776223       -1.1991036210       -6.1926559711
 H         0.5638495090       -2.9446242869       -1.5272445665
 H        -0.8212846056       -3.5351606657       -2.2407910870
 H        -1.8001559691        0.0601898503        1.9122661446
 H        -1.2829098119        0.5788697642        0.4958940503
 H        -3.8241943255       -3.1655900713        0.0435295786
 H        -2.5701625532       -4.1626233962       -0.8622644771
 H        -3.4987776888       -3.0208196987       -1.7385049816
 H        -0.4867301858       -3.3429375411        0.6409127341
 H        -0.6525350607       -1.9761837418        1.5442582884
 H        -1.9589483025       -3.2419931774        1.5809926814
 H        -3.6422929633        1.7523110270        0.0107926174
 H        -4.3092661306        1.2844286096        1.4066257600
 H        -3.9824172246        2.5403382326        3.9736669346
 H        -4.8274736520        4.0337085409        4.5669033307
 H        -2.0470773041        5.3075885284        2.2769501403
 H        -3.1476331114        5.0444577566        3.6030622971
 H        -3.6360859888        6.1745419587        2.4491886699
 H        -4.8581771617        3.7150004869       -0.2458886640
 H        -4.7601430572        5.4700524650        0.3890835787
 H        -3.3421266243        4.5886268847       -0.2271728842
 H        -6.9921537236        2.4371988255        3.8629283630
 H        -6.3607317496        2.4781643321        5.6278848925
 H        -7.8201756017       -0.1701206594        1.7974714677
 H        -7.6611462487       -1.8070986046        2.4991187719
 H        -5.9482497052       -1.9063309229        5.7397964258
 H        -5.9282611120       -1.9465379362        4.0283370323
 H        -7.4644541045       -2.3551677272        4.8847422230
 H        -7.1842671303       -0.4036220520        7.3333472741
 H        -7.3019232257        1.0699531871        6.4740370916
 H        -8.6456277910       -0.0991497894        6.5511313931
 H       -10.2104354932       -1.7607829007        3.0479510858
 H       -10.1964309891       -0.0658931061        2.7623349184
 H       -11.0692283618       -0.8333188979       -2.5540833123
 H       -10.0256692383       -1.9468301105       -2.0278240936
 H       -11.4667356883       -2.4782733981       -3.0452738915
 H       -12.7607085717       -2.0845503922        1.7279743093
 H       -13.5328203670       -0.7750180151        0.9076292883
 H       -12.6833984871       -0.3804059758        2.2860491977
 H       -12.2640604870        1.2552241247        0.1026369883
 H       -10.5755359786        1.0822644248        0.3395640489
 H       -11.1409574260        0.8446820020       -1.1677357115
 Na        3.5913365903        0.2641903104       -1.9198281346
