155

 C         2.9864922176       -0.8833533843        2.6673957871
 C         2.9844704785       -0.0708586340        1.3776389517
 C         2.7298202533        1.4846172380        1.2894566145
 C         4.1044657610        2.0758457520        0.9900786927
 C         5.1785684358        2.6089199549        2.0942402839
 C         1.5348973861        1.7388990948        0.2336908156
 C         2.2557201131        1.9050653766        2.7237459169
 O         3.2452512331       -0.7210065906        0.3203375278
 O         4.3663729068        2.1835077934       -0.1645452473
 C         6.6174444931        2.2852862403        1.7002900117
 C         6.8545617641        0.8184446534        1.3268689663
 C         8.2748201985        0.5929248563        0.9533793512
 C         8.1747788908       -0.1434515540       -0.4285856080
 C         7.6971892630       -1.6594656733       -0.4842481640
 O         5.9562689769       -0.0185943036        1.4340569077
 O         8.3989613410        0.5286649607       -1.4415156280
 C         9.1064290043        1.8782843241        0.6654781908
 C         9.0759996975       -0.2488041740        1.9321758068
 C         7.7475135622       -2.1967120056       -1.9989707128
 C         6.7197887029       -1.2603754600       -2.7114700620
 C         6.6391579270       -1.1560120980       -4.4441922522
 C         5.2002850040       -1.0730948710       -4.8130173186
 C         4.8130073626       -0.1398525841       -5.9741741060
 C         7.3856914451        0.1798861169       -4.7290338181
 C         7.2502799840       -2.4494972999       -5.0349665785
 O         5.9046583759       -0.6657666939       -2.0704005364
 O         4.3276263141       -1.5284045758       -4.1156267406
 C         3.3337503900        0.1022827756       -6.0923570050
 C         2.7057060573        0.5557951019       -4.6616377546
 C         1.2529648786        0.2794871207       -4.2687587750
 C         1.4045831585       -0.8161749072       -2.9132558618
 C         0.9675496228       -2.2646164899       -3.1439464680
 O         3.4138468090        1.2172021636       -3.9972744943
 O         2.0489451875       -0.4476477255       -1.9602049773
 C         0.5510204219        1.5440795595       -3.7297460581
 C         0.4130917078       -0.3581413114       -5.3744118780
 C         0.0613054534       -2.7358433300       -1.9097155170
 C        -1.0041322086       -1.7991526490       -1.6232394908
 C        -2.0820016897       -2.2028399829       -0.4780368099
 C        -3.0099386923       -0.9608754496       -0.2448028338
 C        -2.9261017898       -0.2615307384        1.0186225294
 C        -2.9947841668       -3.3849091496       -0.9051017703
 C        -1.1304923624       -2.5841214050        0.7004848604
 O        -1.0890605882       -0.7715832347       -2.2213483317
 O        -3.8474455836       -0.6646450555       -1.0969197864
 C        -3.9600671753        0.9195534406        1.1360880624
 C        -3.2472449591        2.2430284004        1.3871757461
 C        -4.0588835976        3.5668940235        1.4838046622
 C        -5.2332819607        3.4653014397        2.3897665212
 C        -4.8460941279        3.3009585203        3.9131688253
 O        -2.0637409172        2.3211569339        1.3821972717
 O        -6.4059124502        3.5870353714        2.0089459164
 C        -3.1053322549        4.6254740202        2.0410532662
 C        -4.4373625649        3.8351063223       -0.0225761051
 C        -5.8816739721        2.2848662076        4.5439878532
 C        -5.6241340487        0.7138078837        4.4034222071
 C        -6.7277612696       -0.2865528178        4.7947171818
 C        -8.1524197295       -0.0361788994        4.1300249922
 C        -8.4367385971       -0.6407117732        2.8426786330
 C        -6.1376567886       -1.7466987864        4.5966996235
 C        -6.9016810512       -0.0351245082        6.2875229900
 O        -4.4909850878        0.4055049968        4.0390551223
 O        -8.9608472549        0.5623913748        4.7848609638
 C        -9.8862827176       -0.2763492568        2.2105408924
 C        -9.9752432304       -0.8698124145        0.8007427018
 C       -11.4599777527       -0.8452894712        0.1761141290
 C       -11.6379991190       -2.0243204585       -0.8671847978
 C       -10.7841081453       -2.2189745096       -2.1287253217
 O        -9.0176575212       -1.0966682319        0.0990192608
 O       -12.5154081180       -2.8238268773       -0.7057502269
 C       -12.6296796306       -0.8830404775        1.1639601390
 C       -11.4469002011        0.5291570378       -0.5830958532
 H         2.1994777249       -0.5960188174        3.3622792116
 H         2.8167752026       -1.9891048019        2.5620958690
 H         3.9878474590       -0.6390790133        3.1610881808
 H         4.9104711984        3.6235432995        2.2732908322
 H         4.9432656238        2.2399298240        3.0869735232
 H         1.7884384642        1.9388226641       -0.7914562657
 H         1.0616957430        2.7032978168        0.6729868037
 H         0.7841058331        0.9809972839        0.3971866021
 H         3.0261527697        1.7290467760        3.4002004967
 H         1.9690358545        2.9468983276        2.7220184832
 H         1.2994342344        1.2739212184        2.9015474843
 H         6.8014139332        2.8602468414        0.8169036428
 H         7.3319770015        2.4763360858        2.5690073003
 H         8.4664784546       -2.1490262250        0.2264526845
 H         6.7619841428       -1.7758935354       -0.0192968054
 H         8.8117585338        2.3178035092       -0.2185401040
 H        10.1280189623        1.4830919544        0.5193913307
 H         9.1002025662        2.6289667202        1.5020269572
 H        10.0693173603       -0.6308812888        1.5473665732
 H         9.4073485337        0.3515595091        2.7854793362
 H         8.5361984278       -1.1460214890        2.2436199909
 H         7.3231061792       -3.2004044711       -1.8144288152
 H         8.7531789896       -2.4154600696       -2.3419647464
 H         5.1389063065        0.8935254352       -5.6337350003
 H         5.3139940192       -0.2261058557       -6.9706082530
 H         6.6483866992        0.9836475939       -4.5529695989
 H         7.7130513468        0.2614367025       -5.7250047858
 H         8.1779369357        0.2108053409       -3.9487976596
 H         8.2277017670       -2.6230861840       -4.6295136610
 H         6.7610883375       -3.3022105569       -4.7623911923
 H         7.3919587338       -2.3107108115       -6.0711944166
 H         3.1532281630        0.6798363170       -7.0315202336
 H         2.7638884407       -0.8586637981       -6.2649140445
 H         0.3995822657       -2.4245439995       -4.0926346086
 H         1.8484590856       -2.8442209621       -3.1005427605
 H         1.3123672515        2.0288044171       -3.1705544227
 H        -0.2347331662        1.1667192967       -3.0866657473
 H         0.2445532661        2.1947829738       -4.5102422425
 H        -0.6160190625       -0.5159048133       -4.9820119451
 H         0.3240179695        0.0685181891       -6.3096246400
 H         0.7683936085       -1.3245155374       -5.5992897733
 H         0.7764690609       -2.8569160367       -1.1010671754
 H        -0.3383576625       -3.7416235179       -2.1115658893
 H        -2.9796222665       -0.8773314826        1.9675447062
 H        -1.9131015059        0.1919340394        1.0438644629
 H        -3.7317797621       -3.6401491315       -0.1055222595
 H        -2.4289931026       -4.3479791274       -1.1479119354
 H        -3.6342559002       -3.0837417460       -1.8362516844
 H        -0.5661097468       -3.4713475005        0.5095615087
 H        -0.5475423294       -1.7424992326        0.9821427917
 H        -1.6181917098       -2.8083500695        1.6607500909
 H        -4.5526352232        0.9385870619        0.1833331639
 H        -4.6810811734        0.6928393629        1.9473318054
 H        -3.8684469773        2.8878301599        3.9292706165
 H        -4.9659371106        4.2669806270        4.2730712183
 H        -2.2870483702        4.6734714711        1.2519096778
 H        -2.5758788957        4.2832217487        2.9876297962
 H        -3.4845258214        5.6904733515        2.0632744893
 H        -5.1663814729        3.1385707500       -0.4068998040
 H        -4.8716203877        4.7896254617       -0.0973474083
 H        -3.5027386729        3.7570510170       -0.6996085430
 H        -6.9121702420        2.5207341799        4.1928930846
 H        -5.8604594954        2.4495637078        5.6442660928
 H        -7.5944644211       -0.5224043912        2.2371649859
 H        -8.3843143929       -1.6814671225        2.8737097403
 H        -5.3741586056       -1.9366737851        5.3511506242
 H        -5.6695181774       -1.8806891916        3.5968627637
 H        -6.8808440598       -2.5186249122        4.7847880206
 H        -5.8512538924       -0.0232268020        6.6870231039
 H        -7.5027276074        0.8128239749        6.7099117805
 H        -7.4206614789       -0.9016149973        6.7372959592
 H       -10.6698402372       -0.4653582937        2.9187540518
 H       -10.0205900798        0.8361758212        2.0657910066
 H       -11.2492556671       -2.7923273122       -2.9198701286
 H       -10.4746848491       -1.2569818841       -2.6230448626
 H        -9.7660108730       -2.5980806700       -1.8596803761
 H       -12.6523551321       -1.7207060533        1.8391006980
 H       -13.5432584475       -0.7003644305        0.7506562440
 H       -12.5133844189       -0.1880846042        2.0021458624
 H       -11.7904690418        0.3960803759       -1.6074576957
 H       -12.2522274213        1.1143811845       -0.2178655973
 H       -10.5885224024        1.0871710311       -0.6572023605
 Na        4.0065388591        0.5459923606       -1.6981207178
