155

 C         2.4860230603       -0.9441750846        2.6604045883
 C         3.0434446690       -0.1158325384        1.5030719584
 C         2.7449008974        1.5084888874        1.7025488421
 C         4.0403648452        2.3130789880        1.1369121205
 C         5.0870464890        2.6027167134        2.2586762944
 C         1.5475805930        1.7745824657        0.7837072740
 C         2.3763999961        1.9280104173        3.1342447382
 O         3.5008199692       -0.5941695186        0.4585485211
 O         4.2518255424        2.4864633197       -0.0093605333
 C         6.5037700282        2.5227447079        1.7452890061
 C         6.9756291795        1.0825347030        1.8940737830
 C         8.4515945532        0.7617763187        1.4752180627
 C         8.1285525684        0.3254014659        0.0486642135
 C         7.5074748572       -1.1107592396       -0.1872475439
 O         6.2246426672        0.2159462520        2.2371197463
 O         8.1131111205        1.2096668096       -0.8008972001
 C         9.4653318582        1.9329981957        1.4123241796
 C         9.0291364259       -0.2706541868        2.4617114512
 C         7.6575141899       -1.5858300397       -1.7231810992
 C         6.5255294698       -0.9339387413       -2.5116629960
 C         6.5965980908       -0.9738553735       -4.1216332233
 C         5.0947715469       -0.8651293103       -4.7218494195
 C         4.8831591334        0.3435763238       -5.6471339788
 C         7.5754535900        0.2214543276       -4.3456250748
 C         7.0384624061       -2.3645540598       -4.6808691789
 O         5.5352397528       -0.5715732952       -1.9083088809
 O         4.1637238186       -1.6672613511       -4.5435531988
 C         3.3980309134        0.5936561713       -5.7978568806
 C         2.7617629922        0.7805323031       -4.4719556870
 C         1.2676181390        0.1926823184       -4.1851643117
 C         1.5006021703       -0.9516352974       -3.0525697811
 C         1.1123633858       -2.3453112568       -3.3493156031
 O         3.3430648259        1.4435299770       -3.6719834244
 O         1.9853216818       -0.6964032772       -1.9401487167
 C         0.4890575385        1.4272073055       -3.6424596878
 C         0.5542290118       -0.3281784002       -5.3907855343
 C         0.1621591763       -3.1309325172       -2.3213196660
 C        -0.9487097281       -2.1526026746       -2.0821021155
 C        -2.1823281890       -2.5570015667       -1.2036538592
 C        -3.2150181096       -1.3328035746       -1.2045318547
 C        -3.4880635882       -0.6673059478        0.1869969944
 C        -2.7224132218       -3.8206197949       -1.7330433947
 C        -1.5110531303       -2.7211476065        0.2642898294
 O        -0.7876293958       -0.9715609380       -2.3194179243
 O        -3.7341547826       -1.0278754475       -2.2472879848
 C        -4.1727253522        0.7746430831        0.0076712362
 C        -3.5604769239        1.7817639669        0.9257105574
 C        -4.3300314197        3.1564442155        1.1365327838
 C        -5.4488290414        2.8265521319        2.1802315852
 C        -5.0891610010        3.0984588877        3.6203293248
 O        -2.4739865312        1.6272878116        1.4761649670
 O        -6.4411904896        2.2433336006        1.7967772207
 C        -3.2989606951        4.2167677483        1.5407690383
 C        -5.0456965376        3.5365450242       -0.1682647795
 C        -5.5514408764        2.1389170640        4.5506506099
 C        -5.4460647480        0.6575422305        4.1485322866
 C        -6.5152893056       -0.2961889277        4.9166143949
 C        -7.9137244463        0.1362678780        4.1861922285
 C        -8.1605919996       -0.1150570601        2.7121201534
 C        -6.3450085636       -1.7858266509        4.5569920616
 C        -6.5453354174        0.0318094983        6.4091921721
 O        -4.8371277532        0.3167397324        3.1545355884
 O        -8.7668212227        0.6669541998        4.8637803690
 C        -9.6467642765       -0.1074922344        2.2552919393
 C        -9.7514516927       -0.5426285259        0.7765698920
 C       -11.1919884674       -0.5357093094        0.0399833379
 C       -11.3258039508       -2.0054842623       -0.6109127926
 C       -10.4713261848       -2.3438502968       -1.8360164575
 O        -8.7352887879       -0.9473916916        0.2566863643
 O       -11.8700710885       -2.9132588028        0.0241434837
 C       -12.3087847407       -0.3015501220        1.0782016752
 C       -11.1924736759        0.5711768149       -1.0686619458
 H         1.4685737660       -0.5996140249        2.7905454492
 H         2.5641877531       -1.9570485967        2.3233063208
 H         3.0070021857       -0.9194707482        3.6022978586
 H         4.7794274388        3.5375785053        2.6654100079
 H         4.9763273514        1.8429200770        3.0307814982
 H         1.0724417426        2.8073928047        0.9527836701
 H         0.7736486243        1.1438509035        1.1048287782
 H         1.6994001015        1.7366399620       -0.3383726508
 H         2.8680179485        1.2559431447        3.8655688568
 H         2.8298328488        2.9145494986        3.2449228955
 H         1.3657852288        1.9918925283        3.4293737549
 H         6.6626144233        3.1590676765        0.8210340439
 H         7.1552249667        3.0721053171        2.5354653708
 H         8.0399317673       -1.8612725093        0.5351149756
 H         6.4670339877       -1.1201688931        0.0969340574
 H         9.1764565582        2.6782955549        0.6415901299
 H        10.4426793476        1.4952209002        1.2364117553
 H         9.6151017821        2.3710989745        2.4213193676
 H         9.8711381693       -0.8665412785        2.0615522634
 H         9.1997853284        0.1459994446        3.3947622612
 H         8.2293650912       -0.9865512235        2.6673747560
 H         7.4852431873       -2.6957003625       -1.6980557380
 H         8.6443618591       -1.3794134750       -2.0768195406
 H         5.2811226346        1.1171816334       -5.0423675278
 H         5.3447997742       -0.0024657695       -6.5656989140
 H         7.0675686740        1.1273986857       -3.9286466658
 H         7.8724841185        0.3027825903       -5.3685976367
 H         8.6084747608        0.1826012604       -3.8441986307
 H         8.0903132963       -2.4832520552       -4.4030825862
 H         6.3548308263       -3.1668405664       -4.3878083839
 H         6.8014431380       -2.5048435566       -5.7458541236
 H         3.3604070145        1.4251518654       -6.4495579636
 H         2.9416596561       -0.2758563108       -6.2928553943
 H         0.6986017972       -2.5036604417       -4.3611405433
 H         2.1081807472       -2.8808631799       -3.5556431008
 H         1.0263453521        1.7877625871       -2.7661680204
 H        -0.5780250076        1.2532555008       -3.4988082421
 H         0.5733259730        2.0802428407       -4.5688129104
 H        -0.4956639227       -0.6666496900       -5.0990392734
 H         0.4127612992        0.5151181010       -6.0972213903
 H         1.0410897872       -1.2186927986       -5.8646187489
 H         0.7090731698       -3.4387041511       -1.4119231182
 H        -0.2408309596       -3.9603333491       -2.8563872580
 H        -4.1833327697       -1.3416922848        0.7116441863
 H        -2.5778392122       -0.5353581210        0.7118539981
 H        -3.3365278204       -4.2321578791       -0.9734551049
 H        -1.8937532912       -4.4779828090       -1.9404933239
 H        -3.2838852352       -3.6315651833       -2.5774533846
 H        -0.8269622323       -3.5266306965        0.3904656151
 H        -0.8578713964       -1.8971373211        0.5353050228
 H        -2.3261075716       -2.8409333753        1.0191768211
 H        -3.9664469655        1.1179430279       -1.0151504422
 H        -5.2241271632        0.6151507529        0.1920492465
 H        -4.0003238979        3.3917659912        3.6256710378
 H        -5.5363482487        4.0968291690        3.8039518041
 H        -2.6911166437        4.3598148920        0.6680056555
 H        -2.7212150742        3.7828304953        2.2612323338
 H        -3.7304486628        5.0654019096        1.9740928030
 H        -5.9399391062        2.9598170651       -0.2961701716
 H        -5.2966298216        4.6549939882       -0.0613892160
 H        -4.4963677605        3.4552082741       -1.0814484292
 H        -6.6289688297        2.3689144188        4.8711255293
 H        -5.0417598564        2.3571196392        5.5487366719
 H        -7.7526243549        0.6289316309        2.0855062302
 H        -7.9110868632       -1.1695050713        2.4158118636
 H        -5.5284327016       -2.1767791010        5.2194543493
 H        -5.9292822380       -1.9570037935        3.5756179943
 H        -7.2422761948       -2.4281115944        4.7035389121
 H        -5.7971621972        0.7433857590        6.6920402521
 H        -7.4852784091        0.4461405369        6.6575505427
 H        -6.3531207315       -0.8854859123        6.9644799552
 H       -10.1613141195       -0.7554902524        3.0104792884
 H       -10.1190720313        0.9240754676        2.3062797216
 H       -10.2923287358       -3.3746459383       -1.7861344513
 H       -10.8816641649       -2.0365200963       -2.7678758962
 H        -9.5010473582       -1.8246193252       -1.8843885378
 H       -12.4824599924       -1.0995261999        1.7817177715
 H       -13.2794293495       -0.3323746263        0.5937732254
 H       -12.3787003097        0.7590508798        1.4363774356
 H       -10.1262001813        1.0238699563       -1.1167066993
 H       -11.4050713530        0.1441636581       -2.0680134575
 H       -11.9690101036        1.3230036912       -0.9195760846
 Na        3.7641067808        0.7848906216       -1.5650107859
