155

 C         2.6290390873       -0.9813253332        2.7599035987
 C         2.9782054023        0.0628218493        1.6807743624
 C         2.6267568355        1.5760395146        1.8132764872
 C         3.9161433359        2.2491022815        1.3565775078
 C         4.9980317808        2.8995485265        2.2366171312
 C         1.4576924269        2.0206533855        0.9298509190
 C         2.4061897241        1.9435765057        3.2404561624
 O         3.3881744127       -0.3000321657        0.5741269430
 O         4.1973760350        2.3181966924        0.1174276741
 C         6.5042404598        2.5457719831        1.8816535667
 C         6.9956335256        1.1361497897        2.0643443812
 C         8.5127568515        0.7370857373        1.5974728320
 C         8.2289838278        0.3615711976        0.1108198707
 C         7.7244659366       -1.0789027244       -0.0721255550
 O         6.2663951250        0.2173768230        2.5027033928
 O         8.1908259096        1.2104039853       -0.7874746315
 C         9.4430422763        2.0709959224        1.6830987431
 C         9.1104840458       -0.4189921500        2.4149823477
 C         7.5725167173       -1.4216594835       -1.5424237257
 C         6.4614142713       -0.8587884093       -2.3972555188
 C         6.6688277847       -0.9591540944       -3.9786949330
 C         5.2564468069       -0.7086381145       -4.6821972519
 C         4.9074861889        0.4310065474       -5.7479153089
 C         7.7212675876        0.1513956430       -4.5083934543
 C         7.1562523859       -2.4270695815       -4.3842256780
 O         5.4456309607       -0.4216168360       -1.8564210042
 O         4.4023553145       -1.5161876904       -4.4954965121
 C         3.3226900355        0.5761310665       -5.8449914680
 C         2.6370036522        0.7945048074       -4.4945922254
 C         1.2954462911        0.2500418984       -4.1593456673
 C         1.5100983249       -0.9862669768       -3.1802270811
 C         1.2745084304       -2.4136522837       -3.5173896650
 O         3.2702794550        1.4991329201       -3.6975197511
 O         1.9380111975       -0.8557636989       -2.0830516632
 C         0.4891640020        1.3977212641       -3.4230038859
 C         0.5442649554       -0.2590690827       -5.5094829262
 C         0.2186612004       -3.0657574725       -2.6002299147
 C        -0.8896849730       -2.0697017022       -2.2236324038
 C        -2.0805035312       -2.5705446527       -1.3851970067
 C        -3.2626768668       -1.4796870045       -1.3325649419
 C        -3.6023624696       -0.7560646450        0.0103565669
 C        -2.7611223371       -3.9041993000       -2.0531917340
 C        -1.6212535964       -3.0553739699        0.0122606905
 O        -0.7384934163       -0.9004825701       -2.4505865186
 O        -3.9633975018       -1.3851884278       -2.3295664803
 C        -4.1528619013        0.6285293349       -0.2303717905
 C        -3.5444985807        1.7349364124        0.6980838746
 C        -4.3617490531        3.1131061653        0.9153599090
 C        -5.3138319272        2.9003797529        2.0685370157
 C        -4.9510111442        3.2696592303        3.5710329377
 O        -2.5553977485        1.5017239602        1.3058392028
 O        -6.4630010634        2.4350182914        1.9295075274
 C        -3.3905867081        4.3180901581        1.1963966149
 C        -5.1930102560        3.4942543854       -0.3604629062
 C        -5.4350416339        2.0624781963        4.6322501897
 C        -5.5843318354        0.5846317586        4.1909215117
 C        -6.6076591490       -0.3909058762        4.8753831996
 C        -8.1053469314       -0.0244050230        4.2446230428
 C        -8.1343367093       -0.2602763235        2.8123440438
 C        -6.0879278956       -1.8405037072        4.6487360456
 C        -6.6502946063       -0.0203753447        6.3790729132
 O        -4.7597059195        0.1486816866        3.4035171469
 O        -8.8884140829        0.6209104986        4.9393289567
 C        -9.6531890501       -0.2720846345        2.2353636208
 C        -9.6799035814       -0.5494781821        0.7286121681
 C       -11.1319571513       -0.4114682518        0.0032202440
 C       -11.1987507955       -1.9626754055       -0.4943273717
 C       -10.5232640948       -2.3442080162       -1.7847291270
 O        -8.7047171708       -0.8848589510        0.0823049652
 O       -11.6030910504       -2.7348828622        0.3189573390
 C       -12.3251323486       -0.1782040529        0.9361198452
 C       -11.1379634240        0.4959969882       -1.2238369616
 H         1.8800674437       -0.5210939800        3.4285258820
 H         2.4417123551       -1.9794769640        2.2796531687
 H         3.5622233236       -1.2268380953        3.3436855454
 H         4.7913871334        3.9805551516        1.9954863984
 H         4.8285265379        2.5717869307        3.2850625959
 H         0.8824116645        2.7774884213        1.3782795809
 H         0.6963052292        1.1951679376        0.5856726396
 H         1.8469872158        2.4508432853        0.0187176248
 H         3.1260918675        1.5227583043        3.8841568420
 H         2.1828702149        2.9608401122        3.5131352997
 H         1.4619825447        1.3276988814        3.5127290245
 H         6.6068515958        2.6292577866        0.8039061948
 H         7.1461263285        3.3335254805        2.1806513028
 H         8.4025050773       -1.7170111668        0.4069927464
 H         6.7252988465       -1.1908800629        0.4266813040
 H         9.0141587618        2.8702040440        1.1601986701
 H        10.4914533657        1.9293904906        1.2906920255
 H         9.6181459230        2.2491679301        2.7391328436
 H        10.0602334458       -0.7262397862        2.0395805895
 H         9.3187697204       -0.0441137542        3.4594529539
 H         8.4274349842       -1.2370544245        2.5386334203
 H         7.5317938024       -2.4913508376       -1.6050144726
 H         8.5706109985       -1.0943487184       -1.9781672495
 H         5.4613231238        1.3078850192       -5.3479691691
 H         5.0547945016       -0.0920388465       -6.6834570874
 H         7.9049297553        0.9936500850       -3.8500324632
 H         7.6112402955        0.3355211171       -5.5912075379
 H         8.7284539980       -0.2456491642       -4.5424073389
 H         8.0484309016       -2.7511400127       -3.8405394828
 H         6.3071172701       -3.0681855368       -4.3526725047
 H         7.2666190397       -2.4894912779       -5.4509315175
 H         3.2822498664        1.5083312813       -6.4745046561
 H         3.0748471788       -0.2819124293       -6.4386232992
 H         0.9574940084       -2.6378557911       -4.5256471379
 H         2.1427970228       -2.9720162238       -3.4787677981
 H         0.5587643392        1.1882137586       -2.3524166882
 H        -0.5127251737        1.2539508261       -3.8430483124
 H         0.8335066092        2.3463172790       -3.7085561391
 H        -0.4810872514       -0.5970773682       -5.3562913406
 H         0.4467134894        0.6400105505       -6.0353622618
 H         1.0740362145       -0.9756842140       -6.0663988114
 H         0.6257385567       -3.3026648069       -1.6141099614
 H        -0.0810171068       -3.9840321099       -3.1668119470
 H        -4.3808013134       -1.3712839080        0.4821380500
 H        -2.6887130852       -0.6608199308        0.6786170701
 H        -3.6530562795       -3.9766596144       -1.3959815360
 H        -2.0693841113       -4.7688044810       -2.1351414150
 H        -3.0788956294       -3.5899863156       -3.1327399411
 H        -0.9067458822       -3.9203576135       -0.0246530143
 H        -1.0498455842       -2.3772124024        0.6364626167
 H        -2.5011948698       -3.4245551799        0.4801752080
 H        -4.0795531528        0.8008963033       -1.3115709891
 H        -5.2211032583        0.5296270619        0.0755098196
 H        -3.9447578090        3.5153716503        3.5589988515
 H        -5.4031349708        4.2191652854        3.7454201545
 H        -2.7105151974        4.3231331453        0.3642910299
 H        -2.9007936401        4.1658207755        2.2086362342
 H        -4.0620312974        5.1793175320        1.2731452811
 H        -5.4995466390        2.5774465134       -0.9138345297
 H        -6.0084959093        4.1012728516       -0.1457233869
 H        -4.5488820932        4.0115893355       -1.1472736561
 H        -6.3350085535        2.3475510447        5.1249632770
 H        -4.7414000182        2.0358882168        5.4710599794
 H        -7.8467618259        0.6492061765        2.2850562912
 H        -7.6789741806       -1.1928974924        2.5305262273
 H        -5.0979664870       -1.9646725568        4.9662626788
 H        -6.0944199550       -2.1619751492        3.6001774957
 H        -6.6961089765       -2.4965256109        5.2134895392
 H        -5.6369824391        0.1578364446        6.7912199212
 H        -7.2039380771        0.9570041051        6.5671579985
 H        -6.9919679664       -0.9086606477        6.8957402968
 H       -10.2279228915       -1.1304307529        2.5861066504
 H       -10.1711843473        0.5985228083        2.5639827431
 H       -10.7226070675       -3.4012817928       -2.0324616836
 H       -10.6540138325       -1.6393998433       -2.6573864640
 H        -9.4391858432       -2.3221863359       -1.5733991246
 H       -12.3966460812       -1.0267410475        1.6492871350
 H       -13.3238462076       -0.1314859365        0.5079095970
 H       -12.2723495804        0.7768936055        1.3987364244
 H       -10.2464066768        0.5582290281       -1.7571845252
 H       -11.9608697484        0.1406118619       -1.8326094694
 H       -11.4709769363        1.4572106448       -0.8652594326
 Na        3.4259078070        0.7159026714       -1.4039235583
