155

 C         2.7753994235        0.0968251692        4.0333598368
 C         2.6183703829        0.5144472780        2.5290552144
 C         2.3363949049        1.9895291793        2.2567153429
 C         3.7657661410        2.5810595209        1.5539206637
 C         4.5365636971        3.5412840822        2.4876372448
 C         1.1874991658        2.1827492060        1.2166114434
 C         1.9437546271        2.7658198680        3.5438597934
 O         2.7901182790       -0.2221872529        1.6074599370
 O         4.1354781474        2.1448900438        0.4331782332
 C         5.9851979419        3.4533658264        2.2890763878
 C         6.4913818689        1.9650881299        2.5403970286
 C         7.9788255835        1.6092052688        2.4773401743
 C         8.0877959021        0.7361195276        1.1505879443
 C         7.7160657929       -0.7689754512        1.2826897146
 O         5.6891755098        1.1295631049        2.8960536571
 O         8.4596630896        1.2046484846        0.0344637968
 C         8.9242248910        2.8894319925        2.3436615693
 C         8.2057169822        0.7698661712        3.7655044000
 C         7.5834496389       -1.4062998396       -0.1309743728
 C         6.4859287124       -0.6467285170       -0.9643231576
 C         6.6234542819       -0.5957702108       -2.5816197636
 C         5.3904380616        0.0919071120       -3.2622184555
 C         5.2793599482        1.5678043543       -3.4778752276
 C         7.9415195689        0.0851565550       -3.0789748596
 C         6.6289709166       -2.0968161373       -3.0560895062
 O         5.5480388844       -0.1541954704       -0.3643077903
 O         4.5342070261       -0.7196744027       -3.5362657330
 C         3.9035486615        1.9367196429       -4.1738276919
 C         2.6142299024        1.7489453379       -3.1352528186
 C         1.3941988420        1.0318666615       -3.7065799711
 C         1.5278813369       -0.5850997643       -3.2640823472
 C         1.1372574503       -1.6920703248       -4.2277426749
 O         2.7047717950        2.2096102200       -1.9877078186
 O         1.9365614517       -0.8662220470       -2.1115846182
 C         0.2449363586        1.6990700002       -2.9497040257
 C         1.1609298466        1.1821399863       -5.2617503970
 C         0.0495859606       -2.7202984085       -3.6866190465
 C        -1.4469830853       -2.1915044351       -3.7324993703
 C        -2.6211270012       -3.1081661452       -3.6255651784
 C        -3.6816105683       -2.2251247993       -2.8776945311
 C        -3.1880394752       -1.7238715062       -1.4717221693
 C        -3.0990376231       -3.5181122436       -5.0139226757
 C        -2.4834754907       -4.4663991189       -2.7264250914
 O        -1.7079681451       -1.0220289142       -4.0743097119
 O        -4.6895568594       -1.9707539353       -3.4045778594
 C        -4.1617830833       -0.8007979078       -0.7077155294
 C        -3.6360312331        0.6352179662       -0.7319373497
 C        -4.6444261276        1.8880256181       -0.4922697416
 C        -5.1367827268        1.7947865900        1.0497662951
 C        -4.1417488820        2.0871052067        2.1860314023
 O        -2.4509794572        0.8470894658       -0.7623920951
 O        -6.2763774297        1.5523635569        1.2734580225
 C        -4.0088630321        3.2090672634       -0.7726028804
 C        -5.8728261138        1.7615664386       -1.4356787418
 C        -4.7206358747        1.5031203441        3.5195247382
 C        -4.7897703183       -0.0322623724        3.4430749557
 C        -5.8258010378       -0.6307194417        4.4832718230
 C        -7.2031591888       -0.1679544959        4.0051473465
 C        -7.9591421255       -1.1229358853        3.0759459897
 C        -5.7666773278       -2.2034744989        4.3995213417
 C        -5.3618989521       -0.1057000395        5.8339121673
 O        -4.0468887813       -0.7061915590        2.7590343858
 O        -7.4431780303        0.9924541112        4.0646379586
 C        -9.0794767701       -0.4491405606        2.3288531630
 C        -9.1631354325       -1.0151036618        0.7990220497
 C       -10.4073085483       -0.7881176686       -0.1470222992
 C       -11.3940250624       -2.0508761777       -0.2406210756
 C       -10.8473489204       -3.3389641631       -0.8248634402
 O        -8.1676322518       -1.5279058670        0.3906931570
 O       -12.4937642225       -1.9066424963        0.1612069535
 C       -11.2161949729        0.4272095146        0.4205546617
 C        -9.8816478191       -0.5695800840       -1.5124239044
 H         1.7728870513        0.3202529520        4.4135709889
 H         2.9592033625       -0.9711239084        3.9731155637
 H         3.5956416131        0.5870994598        4.6642706674
 H         4.2028858932        4.5344425552        2.2806611867
 H         4.2820581293        3.3492657965        3.5060121625
 H         0.2410898705        1.9554307930        1.6210053329
 H         1.5352508583        1.6866617197        0.2483321085
 H         1.0556170922        3.2438481131        0.9918838262
 H         2.5531941697        2.3898645605        4.3801959009
 H         1.9815267417        3.8791477729        3.3849238177
 H         0.9853765458        2.4838166913        3.7703824445
 H         6.3464981688        3.8004110449        1.3044811089
 H         6.5048409499        4.0655862446        3.1559695475
 H         8.3967632898       -1.3951329387        1.8358909739
 H         6.7622965077       -0.9474433667        1.9268739463
 H         8.6645039135        3.4993542139        1.4801009161
 H         9.9216437666        2.5592965521        2.3274297854
 H         8.8533005811        3.6235023451        3.1187253234
 H         9.0702541899        0.0990093977        3.7526613474
 H         8.2497808274        1.4673472974        4.5662913524
 H         7.3390535320        0.1633351757        3.9726555723
 H         7.1354341363       -2.3792491653       -0.0830017147
 H         8.4831623760       -1.4335005133       -0.7582975346
 H         5.3329258859        2.0352245177       -2.4372611199
 H         6.0868040077        2.0001765062       -4.0782398872
 H         7.8895521044        1.1236539879       -2.9090084484
 H         8.1015102544        0.0285844117       -4.1114651772
 H         8.7558953550       -0.4866960320       -2.6193790525
 H         7.3345725282       -2.7787604465       -2.5874563759
 H         5.7258506774       -2.5871290637       -2.6874942782
 H         6.7330283187       -2.0078507769       -4.1591252158
 H         3.9594519523        2.9889626916       -4.4939175570
 H         3.7459214534        1.2414382375       -4.9779039762
 H         0.7330394996       -1.2179367785       -5.2062982420
 H         1.9716372730       -2.2574503780       -4.6826254311
 H         0.5197120236        1.8851157046       -1.9252248588
 H        -0.5977642759        1.0615646629       -3.1050926626
 H         0.0474473760        2.7646673027       -3.1653245425
 H         0.2827154082        0.8574317620       -5.6657408275
 H         1.1481958170        2.2825272415       -5.4702859953
 H         1.9231346303        0.6520460063       -5.8276678522
 H         0.3768699763       -3.0257859384       -2.7177827321
 H         0.1060454984       -3.5408348759       -4.3872016006
 H        -3.0303027193       -2.6603536505       -0.8561097586
 H        -2.1912274209       -1.2858743001       -1.6471834147
 H        -4.0778003959       -4.0617202391       -4.9234763247
 H        -2.4496014169       -4.3769321542       -5.3768442344
 H        -3.2492603061       -2.6287586517       -5.6425685286
 H        -1.6367128561       -5.1260101073       -3.0666468898
 H        -2.1702871335       -4.2206966564       -1.7236292373
 H        -3.4509007795       -5.0034035931       -2.6770880081
 H        -5.1421398077       -0.9625632093       -1.2036591422
 H        -4.2100020935       -1.0840002793        0.3385297614
 H        -3.1067025261        1.7799209778        2.0402787551
 H        -4.1650338070        3.1712279453        2.3404715390
 H        -3.9323978290        3.4787808098       -1.8573897089
 H        -2.9942528937        3.1560397668       -0.4797597169
 H        -4.5886125380        3.9979746608       -0.2874069848
 H        -6.4418520812        0.8834942045       -1.2739201239
 H        -6.5068307441        2.6799051746       -1.2098207245
 H        -5.5516101230        1.8795847725       -2.4448337388
 H        -5.7448336414        1.9253277961        3.5733789957
 H        -4.1348575209        1.9109111860        4.3517329082
 H        -7.3598122771       -1.3615942245        2.2900739235
 H        -8.4045652535       -1.8832978558        3.5655338531
 H        -6.3890301245       -2.5965923399        5.2187995023
 H        -4.7231761162       -2.6602204653        4.4231556829
 H        -6.2356933836       -2.5508326926        3.4673465298
 H        -4.2945445501       -0.1588197412        5.9438036012
 H        -5.6916763958        0.9207181674        5.9972717139
 H        -5.8669155561       -0.6136504282        6.5985147313
 H       -10.1054038300       -0.6593535376        2.8202564057
 H        -8.8489626366        0.6193302526        2.2220525739
 H        -9.7812789964       -3.1961482276       -1.1218240677
 H       -10.9314439183       -4.1184249494       -0.0593958930
 H       -11.4859183727       -3.5374772906       -1.7173780003
 H       -11.6582031336        0.2366278596        1.3636873192
 H       -11.8643651647        0.6299962529       -0.3619667353
 H       -10.4241969994        1.1586587290        0.6675253127
 H        -9.1742660564        0.2770428512       -1.5080797777
 H        -9.4808476428       -1.3968519016       -2.0609598181
 H       -10.6527088730       -0.2574957276       -2.1302353461
 Na        3.0936843089        0.2323552708       -0.6788551442
