155

 C         2.1055849983       -0.2156757746        3.8740752268
 C         2.2166989576        0.5491832536        2.5561975603
 C         2.2003931617        2.1552447933        2.4500242307
 C         3.5149928848        2.5870193007        1.8291437236
 C         4.4021492267        3.4444513743        2.7211186689
 C         1.0040267974        2.6566659668        1.6763600034
 C         2.1260994477        2.7257902438        3.9056885370
 O         2.2596384326       -0.1502287018        1.4843207712
 O         3.7342002514        2.2822750933        0.7011471705
 C         5.8772885371        3.2939306077        2.2829706296
 C         6.4777384208        2.0794881844        3.0982552062
 C         8.0496858331        1.7420859909        2.8756337064
 C         8.0878922392        1.0606212620        1.4212461316
 C         7.9978192615       -0.5098891365        1.2854544515
 O         5.7570401611        1.5684175939        3.9837096043
 O         8.3437906999        1.7600796470        0.4528618301
 C         8.8858323277        2.9885199168        2.8557140173
 C         8.5137698191        0.8073139795        3.9862835134
 C         7.8394035409       -0.8983883207       -0.2590565232
 C         6.4374440811       -0.4444076347       -0.8606844853
 C         6.3694339652       -0.7404374190       -2.3647443938
 C         5.1146552268        0.0016211238       -2.9334881801
 C         5.1232795575        1.5936669801       -3.4847414441
 C         7.6485157360       -0.2438609023       -3.1791638303
 C         6.2035141232       -2.3302852723       -2.5802888989
 O         5.5322345147        0.0715298134       -0.1496826048
 O         3.9991581343       -0.5248986920       -2.8232356157
 C         3.7961276049        1.9456228658       -4.1512463963
 C         2.5372698631        1.7289541191       -3.1986680953
 C         1.2824327331        0.9325713586       -3.7360550774
 C         1.3208601334       -0.5148439646       -3.1746287850
 C         1.4734390436       -1.7174784136       -4.1042692683
 O         2.6180087693        2.0866369833       -2.0186040738
 O         1.3402418881       -0.7937895227       -2.0167195132
 C        -0.0095148530        1.5868977349       -3.2429634436
 C         1.1648580104        0.9426963656       -5.2738312345
 C         0.2483308998       -2.7499266845       -4.0171129912
 C        -1.0842175099       -2.0494597713       -4.1660498027
 C        -2.3766867741       -2.8069075029       -3.8343000735
 C        -3.4795250860       -1.9325014587       -3.0185446311
 C        -3.4588194307       -2.0924673029       -1.5225875550
 C        -2.7980631764       -3.1985841432       -5.2693040666
 C        -2.1009291089       -4.1962654154       -3.0155118295
 O        -1.0456708051       -0.9166315249       -4.5560491489
 O        -4.2844885098       -1.2834510659       -3.6150509294
 C        -4.3432842586       -0.9124673484       -0.8824240830
 C        -3.5572797883        0.3622805948       -0.9869149065
 C        -4.4807814130        1.6712366950       -0.7547133531
 C        -5.0211444676        1.5942546130        0.6236546739
 C        -4.2841604428        2.1892145749        1.8113771458
 O        -2.4068725980        0.5059650961       -1.2320037060
 O        -6.0794000622        0.9886900997        0.8389345738
 C        -3.5609957625        2.8269680853       -1.1044801066
 C        -5.7097035035        1.6339616773       -1.6691084243
 C        -4.8752567831        1.5297572760        3.0890105741
 C        -4.6435214397        0.0639552301        3.0925023073
 C        -5.5574621074       -0.7385436911        4.0955765360
 C        -7.0533489172       -0.3456021829        3.6718434853
 C        -7.8839431763       -1.4929054365        3.0873042802
 C        -5.2860939262       -2.2663524598        4.0004287446
 C        -5.1922468148       -0.2283247988        5.5538757446
 O        -3.7575345285       -0.5620645100        2.5039220361
 O        -7.4702736009        0.7890278049        3.8376092117
 C        -9.0595307052       -0.8737215317        2.2831483812
 C        -9.1163178650       -1.3496035725        0.8396070885
 C       -10.2572940355       -0.8969628085       -0.0539437752
 C       -11.3720248409       -1.9315402951       -0.0133530315
 C       -11.0191809192       -3.3886847365       -0.1966050775
 O        -8.1653886539       -1.9506065423        0.3794289298
 O       -12.4991627653       -1.6058668334        0.2193248382
 C       -10.7573911009        0.5041956999        0.4946207948
 C        -9.8273217006       -0.7527654043       -1.5299668055
 H         1.2392113713       -0.0938959976        4.5424265359
 H         2.1474748420       -1.2297626605        3.4067526035
 H         3.0386826430        0.0153599560        4.4037102980
 H         4.1043719366        4.4532966301        2.5141629409
 H         4.3479788984        3.0948846099        3.7350979119
 H         0.1175609385        2.0948783158        2.0194484465
 H         1.1197896349        2.4074350427        0.6573126615
 H         0.9437928566        3.7815139444        1.8939289557
 H         2.9281561745        2.3289358983        4.5012071243
 H         2.2546670192        3.8023489619        3.8798295678
 H         1.1205409747        2.5176074797        4.3924976529
 H         6.0204481196        2.9722228006        1.2448622285
 H         6.4812448483        4.1008764916        2.4159326330
 H         8.8062007833       -1.0865209326        1.8350006766
 H         7.0995344943       -0.8551708634        1.7437046857
 H         8.9443248087        3.3199972301        1.8848739214
 H         9.9021189296        2.9528671950        3.2884698836
 H         8.3671108423        3.6784195175        3.5095050598
 H         9.4948653081        0.4605878639        3.7635985153
 H         8.5957562017        1.3105208421        4.9918325131
 H         7.9735475197       -0.1075789733        4.0810916550
 H         7.7163011319       -2.0102786330       -0.4802417320
 H         8.5533336342       -0.4586631617       -0.9270768000
 H         5.1334318635        2.1779352952       -2.5440123120
 H         5.9363514288        1.7545488545       -4.3042084430
 H         7.6981417664        0.8560737998       -3.2429040446
 H         7.5437565027       -0.6413383666       -4.1271950682
 H         8.6570962886       -0.5053434132       -2.7921343662
 H         7.1544612952       -2.8561377610       -2.2044403535
 H         5.3600154488       -2.6536125386       -2.0125415154
 H         6.0326242565       -2.6740605757       -3.6022865340
 H         3.8658071739        3.0051622100       -4.3708760661
 H         3.7166042695        1.4090393540       -5.1099719985
 H         1.5713743091       -1.4683082883       -5.1448828827
 H         2.3915339234       -2.2046328374       -3.8032135103
 H        -0.0958909596        1.3780362381       -2.1741648779
 H        -0.9152902332        1.1242486869       -3.6334331489
 H         0.0367335907        2.6406530934       -3.4781495185
 H         0.2666944345        0.4981340047       -5.5743108545
 H         1.2841623775        1.9124603938       -5.8137652361
 H         2.0546007122        0.3723546288       -5.7817656532
 H         0.3835737176       -3.3510794530       -3.1017426355
 H         0.2598461569       -3.4872850101       -4.8301269606
 H        -3.8624896912       -3.0649426914       -1.2540367740
 H        -2.4654552837       -2.1737724830       -1.0927683221
 H        -3.8894168813       -3.4570398542       -5.4671041158
 H        -2.1731211766       -4.1229814613       -5.5337724909
 H        -2.6044884300       -2.3566079211       -5.9746903193
 H        -1.3529773851       -4.7429099318       -3.5530202934
 H        -1.6694991085       -4.0897481585       -1.9740779864
 H        -2.9239349739       -4.8956346616       -3.0908975296
 H        -5.3477895125       -0.8674407501       -1.2694077716
 H        -4.4075978373       -0.9964348444        0.2225095418
 H        -3.1866146078        2.0197926565        1.8803866890
 H        -4.4626197937        3.2760914156        1.8386900497
 H        -3.2826875905        2.7651601907       -2.1510033284
 H        -2.7252093422        2.9313338922       -0.3650023801
 H        -3.9951049746        3.7844626711       -0.8317436834
 H        -6.5382326610        1.3318744707       -1.0709057996
 H        -5.8602690343        2.6141245243       -1.9747049437
 H        -5.5322314377        0.9559326717       -2.5405488655
 H        -5.9683815661        1.6747367199        2.8782198048
 H        -4.4454789413        1.9278988415        4.0979292242
 H        -7.1941307622       -2.1470175545        2.4911565715
 H        -8.3110762854       -2.0775227108        3.9284081443
 H        -4.7088611853       -2.6045203656        3.1114577438
 H        -6.2710045105       -2.7962128744        3.9620622333
 H        -4.8570502913       -2.6680988610        4.9240446793
 H        -4.1360062510       -0.1458016577        5.6555959891
 H        -5.5962133445        0.7846551613        5.6446171460
 H        -5.5097586356       -0.9204886736        6.3425519346
 H        -9.9718628202       -0.8358419536        2.8418717440
 H        -8.7735478367        0.1890782952        2.1350085572
 H       -11.6015934811       -4.0004113155        0.4625315866
 H       -11.3884408219       -3.7850272744       -1.2169947669
 H        -9.9283059187       -3.4411416966       -0.1579210608
 H       -11.2016459485        0.1971210727        1.4829427419
 H       -11.4739960571        0.9695987585       -0.1370671371
 H        -9.8697911742        1.1208371524        0.4503486761
 H        -9.5080304807        0.1274147232       -1.9452058660
 H        -8.9347575432       -1.3693068803       -1.6188626939
 H       -10.5102847236       -1.1648975853       -2.2445236052
 Na        2.7945093899        0.3596960099       -0.5805126741
