155

 C         0.7481343263       -1.4761981974        3.0260480281
 C         1.4882498622       -0.3652583231        2.2373006874
 C         1.1123639733        1.1839614281        2.6972759799
 C         2.4292074445        2.1399368440        2.5208029612
 C         2.9164669033        3.0944686100        3.6665905758
 C        -0.0354985067        1.6924446188        1.8274221460
 C         0.6937613947        1.1971781756        4.2890916201
 O         2.2636305580       -0.5745646173        1.3704621849
 O         3.0485247796        2.2198875718        1.4582981422
 C         4.4389327888        3.5204821547        3.3713893738
 C         5.3734230759        2.4061006486        3.8133402897
 C         6.9071277582        2.7312971455        4.0334564472
 C         7.5699571624        2.2235642208        2.6547429669
 C         7.6294585514        0.6874511293        2.3460852798
 O         5.0724712871        1.2525273510        3.8861579394
 O         8.1439765429        2.9732678210        1.8630276300
 C         7.1153048756        4.2417550758        4.3672876929
 C         7.3494103963        1.8701844507        5.3325679087
 C         7.9055641041        0.3308907397        0.9044040281
 C         6.6777162644        0.3069781793       -0.0172041780
 C         6.8461561866       -0.2073142084       -1.5486695899
 C         5.6767681460        0.3984726675       -2.3611541315
 C         5.7511451117        1.5050527506       -3.4907279425
 C         8.1457323402        0.3534208409       -2.0868388437
 C         6.8384546931       -1.7559256045       -1.3654792898
 O         5.6146654627        0.3463757024        0.5319716804
 O         4.6691721328       -0.2240399413       -2.1884844594
 C         4.2984675122        1.4950800535       -4.2157438117
 C         3.2556634102        1.9459287744       -3.2568437110
 C         1.8199372369        1.5224107620       -3.4916550732
 C         1.5899736485        0.1145048970       -2.7946093669
 C         0.8086100217       -0.9982066197       -3.6977194986
 O         3.6234378053        2.5763606076       -2.2208878536
 O         1.6565070103       -0.0781706001       -1.6275226378
 C         0.8045827124        2.3583379039       -2.7532653231
 C         1.4738136469        1.5430410060       -4.9451095364
 C        -0.6936068302       -1.0278546868       -3.5123175489
 C        -1.0311163567       -2.5158225345       -3.7804370384
 C        -2.3055436298       -2.9738574307       -4.6392673484
 C        -3.3359029647       -1.9032214148       -4.3026776669
 C        -4.0495635911       -1.9576043308       -3.0001752649
 C        -2.0583304493       -2.9622983362       -6.2205854338
 C        -2.6851832923       -4.4886549033       -4.1404938903
 O        -0.3460162078       -3.3746345113       -3.2084225013
 O        -3.5163056288       -1.0386798449       -5.1626122066
 C        -4.8216233870       -0.6219005169       -2.6413832175
 C        -3.8856312075        0.4892691638       -2.2073665614
 C        -4.6706025530        1.8102120779       -1.6036096497
 C        -5.1845289686        1.5114958188       -0.1432756035
 C        -4.8531776423        2.3269837176        1.1271241141
 O        -2.6982718398        0.4423588480       -2.0878684902
 O        -6.0168951774        0.6155952652       -0.0857166560
 C        -3.6392092652        2.9252543186       -1.7265852851
 C        -5.8746181200        2.2880971404       -2.4397834178
 C        -5.0549528385        1.5446413504        2.4827528084
 C        -4.1655008203        0.3352286908        2.5505958184
 C        -4.6496511514       -1.0371551260        3.3111032313
 C        -6.1840188446       -1.2306977055        3.0629468968
 C        -6.6388685057       -1.7503644539        1.7380211631
 C        -3.8949497511       -2.2815527149        2.7644235672
 C        -4.3929347487       -0.9082199247        4.9086876190
 O        -3.0750065378        0.2666486337        1.9920180662
 O        -6.8842349769       -0.8959229158        4.0312661544
 C        -8.1736230759       -1.5291286905        1.5432948210
 C        -8.5724198531       -2.4156891947        0.3568473155
 C        -9.8307725490       -2.0964128610       -0.4895654670
 C       -11.0128182502       -1.7670863225        0.4398720157
 C       -12.3727397568       -2.4748072931        0.3185076076
 O        -8.0329363398       -3.5119003988        0.2198721774
 O       -10.8528364255       -0.7895343195        1.1965685728
 C        -9.5079989605       -0.8436150171       -1.3520317271
 C       -10.1002115047       -3.4273848630       -1.3902917877
 H        -0.3353966861       -1.5314832613        3.1036327592
 H         1.2357150116       -2.4183544920        2.7189009135
 H         1.1527058658       -1.3271675924        4.0356057459
 H         2.1681423871        3.8204853230        3.8653405087
 H         2.8961753477        2.4558825081        4.5272129707
 H        -0.8592878570        1.0285985267        1.9804646090
 H         0.4542497845        1.6675490630        0.7881480792
 H        -0.3925396839        2.6317204771        2.1870987067
 H         1.5578463137        0.9390885946        4.9329254500
 H         0.3908068469        2.1577528708        4.6266780232
 H        -0.1796050422        0.5578636127        4.5708383547
 H         4.4728182332        3.5229489234        2.2716802829
 H         4.6912805238        4.4591410962        3.6751017009
 H         8.2920996124        0.1264443968        2.9990251672
 H         6.5663040076        0.3683164576        2.6484402010
 H         6.7015094810        4.8666577250        3.6232997262
 H         8.2085676784        4.4124844443        4.4865393990
 H         6.4818441407        4.4427487682        5.2465945602
 H         8.4025971048        1.6122964983        5.4740587102
 H         7.0945846015        2.5350885043        6.1776799191
 H         6.7250297915        0.9445935702        5.3355329963
 H         8.6231091685       -0.4385013919        0.9657971162
 H         8.5039082210        1.1902537095        0.5410569755
 H         5.8499619595        2.5003796046       -2.9294828017
 H         6.6260662417        1.3117006120       -4.1281257074
 H         8.2523261066        1.4153012768       -2.3073556545
 H         8.3682578106       -0.1546224652       -2.9659250374
 H         8.9209209733        0.0819585147       -1.2834382256
 H         7.6972854237       -2.1158670945       -0.7787392987
 H         5.9350720421       -2.0352761791       -0.9107394432
 H         6.8485355898       -2.2248605990       -2.3362573339
 H         4.4285981875        2.1244367394       -5.0672390771
 H         4.0389372498        0.4991006772       -4.5357101347
 H         1.1030724010       -0.9717517235       -4.7345057822
 H         1.1879666544       -1.9212845566       -3.2810887156
 H         1.3022221770        2.6550271251       -1.8025182692
 H        -0.0983229644        1.7891152414       -2.4956564372
 H         0.5288142021        3.2772812058       -3.1838574621
 H         0.4536981746        1.1643030477       -5.0576122753
 H         1.6066295187        2.5291352077       -5.4122820093
 H         2.1269503154        0.9662382478       -5.5531784284
 H        -1.2810833020       -0.4849728294       -4.2418422490
 H        -1.0172140912       -0.7118124360       -2.4933118614
 H        -4.7051141790       -2.8930521137       -2.9069055839
 H        -3.3276760913       -2.2457084813       -2.2215070106
 H        -2.8194312271       -3.5572981325       -6.7607321548
 H        -1.1514326150       -3.4746432559       -6.5605247073
 H        -2.0230440875       -1.9197928374       -6.6144613830
 H        -2.0730461370       -5.2894396417       -4.5878447170
 H        -2.5767592246       -4.4529049664       -3.0597037094
 H        -3.7445467184       -4.7404713720       -4.3943615990
 H        -5.5738897116       -0.3459197348       -3.4208697167
 H        -5.3843641933       -0.7725028948       -1.7095575409
 H        -3.8203071382        2.6741284589        1.1103807064
 H        -5.5423021633        3.1332754533        1.0696597666
 H        -3.1081246472        2.8535187711       -2.6683444151
 H        -2.8554793521        2.7008329683       -0.9147294860
 H        -4.0260090479        3.9720847676       -1.7344446302
 H        -6.7853445829        1.7247928079       -2.2084509264
 H        -6.1849154544        3.2098877360       -2.0405325404
 H        -5.7421613071        2.5322965522       -3.5270429614
 H        -6.0765764798        1.2471988053        2.5712193279
 H        -4.8284278661        2.1824720333        3.2952441197
 H        -5.9394615298       -1.1920944281        1.0295805476
 H        -6.4123664069       -2.7853094877        1.5274874518
 H        -4.1356744701       -2.3353884653        1.6901234997
 H        -4.1960739550       -3.2298872052        3.2248071522
 H        -2.7936759872       -2.2488411318        2.8657555577
 H        -4.0635566321       -1.9272633045        5.1640436559
 H        -3.7157538883       -0.1452723668        5.1439466402
 H        -5.3078093853       -0.6750721544        5.4408558478
 H        -8.7392313300       -1.8603084326        2.3592716927
 H        -8.4071613178       -0.5046135987        1.3626489329
 H       -12.8838985369       -2.4429002155        1.2322839996
 H       -12.8481445728       -1.9712932342       -0.5400700504
 H       -12.2085688804       -3.4916322129        0.1025727525
 H        -9.4107800808        0.1218509153       -0.8243123673
 H       -10.1923542211       -0.8862494179       -2.2212189440
 H        -8.5383459928       -0.8925737399       -1.7634125793
 H        -9.2276955187       -3.6280052348       -1.9784797306
 H       -10.5446311357       -4.2248280572       -0.7406481167
 H       -10.9895099191       -3.1629395180       -2.0589661003
 Na        3.4132871889        0.7272071304       -0.2505285327
