155

 C         1.4733711742       -2.4025388608        3.2514984840
 C         1.7917076845       -1.1429983816        2.4470029446
 C         0.9682276303        0.1569914165        2.6204685618
 C         1.8850880624        1.3778436508        2.6324551721
 C         1.8371840080        2.4187067213        3.7853485618
 C         0.0541862227        0.0424891259        1.2950944550
 C         0.0515055683        0.1307349386        3.8074319242
 O         2.7354284981       -1.1705339146        1.7029107926
 O         2.6084207871        1.7317247279        1.6476845877
 C         3.1228405534        3.2918816506        3.9554325635
 C         4.1638380131        2.5704715325        4.8555795703
 C         5.4031849638        3.3322358044        5.2280888522
 C         6.3443823450        3.5141743023        3.8314264250
 C         7.1441385455        2.2264363176        3.4093928691
 O         4.0583280943        1.3663917983        5.1957316965
 O         6.3753992656        4.5976967390        3.3016742345
 C         5.0768404912        4.7143940696        5.7570289895
 C         6.2901913598        2.4879157676        6.1577713988
 C         7.5411934957        2.4002751866        1.9831908489
 C         6.8046524159        1.5486353177        0.9078011452
 C         7.4647385943        1.0335221595       -0.4375966046
 C         6.3047658410        0.5220466386       -1.3393005717
 C         6.3277072049        1.2709837570       -2.6430591838
 C         8.4344745314        2.2355254843       -0.9490106147
 C         8.4965103738       -0.1297524727       -0.1026345823
 O         5.6421162298        1.1847052647        1.0986590371
 O         5.8945337323       -0.5616390677       -1.0578182566
 C         5.2049415528        0.9327168842       -3.6414077817
 C         3.7852343100        1.3088141508       -3.0093008438
 C         2.4192146232        1.0359779084       -3.7292580388
 C         1.6351515584       -0.0798007599       -2.9007418367
 C         0.8182033888       -1.1298214807       -3.5816753665
 O         3.7896408118        2.0270032555       -2.0608019437
 O         1.7580824180       -0.0840885555       -1.6458101924
 C         1.7302483391        2.4251737228       -3.7444325865
 C         2.6126867552        0.4986997834       -5.1517561596
 C        -0.5452078263       -0.7333861968       -4.2376883320
 C        -1.4629760290       -1.9916697964       -4.3022134261
 C        -2.5856044791       -2.1508038434       -5.4073436833
 C        -3.6423114104       -1.0154462838       -5.2219951831
 C        -4.7513457805       -1.2202851244       -4.2273477676
 C        -1.7943225937       -1.9984767085       -6.7709172766
 C        -3.2458964318       -3.5570117972       -5.4105994858
 O        -1.3590117723       -2.7951342695       -3.4131803147
 O        -3.5163420247       -0.0241223872       -5.9514371807
 C        -5.3173278220       -0.0421768490       -3.5189307720
 C        -4.2830742058        0.8277627826       -2.7783517905
 C        -4.9940100418        2.1206956331       -2.0695547117
 C        -5.1427275332        1.7571055616       -0.5970062518
 C        -3.8004834716        1.8507098554        0.2473093627
 O        -3.0805237849        0.5849420714       -2.7108188985
 O        -6.1697899636        1.5611158293       -0.0504025111
 C        -3.9994414811        3.3714269896       -2.2102086344
 C        -6.3538150845        2.6127470262       -2.6541337299
 C        -3.8778306796        1.1849716069        1.6796929820
 C        -3.6821684374       -0.3125872825        1.6863034349
 C        -4.3145077530       -1.2222954720        2.8495646596
 C        -5.8325483004       -1.3966625659        2.6808298421
 C        -6.3662828465       -2.5002018374        1.5948013630
 C        -3.7078782800       -2.7259563556        2.9753235001
 C        -4.1510783852       -0.4302998577        4.1773787260
 O        -2.9600698452       -0.7554175248        0.7947797481
 O        -6.5890953992       -0.5792487464        3.1885531973
 C        -7.8777689579       -2.8503425743        1.6434546695
 C        -8.4099213965       -3.9000175131        0.4851763442
 C        -9.2967081976       -3.3780662994       -0.6531641588
 C       -10.3294705728       -2.1863941966       -0.3147528244
 C       -11.4320155746       -2.4653513439        0.6890657156
 O        -8.2173007263       -5.1103470664        0.6141202607
 O       -10.0564748256       -1.0761844178       -0.7294769976
 C        -8.4160404482       -2.8641759077       -1.8822725638
 C       -10.0810255705       -4.5613697513       -1.1977898612
 H         0.6468945960       -2.8160903417        2.6063425869
 H         2.3225616442       -3.0767348054        3.3799469178
 H         1.0220443586       -2.2000649428        4.2489382400
 H         0.9418160290        3.0935820042        3.6815876819
 H         1.6237133714        1.8115736048        4.7336530981
 H        -0.3264904451       -0.9293392888        1.3355143549
 H         0.5634324994        0.3755502215        0.3052125911
 H        -0.8023257218        0.7083627538        1.4274302420
 H         0.5741852488       -0.1580753915        4.7141551322
 H        -0.4927165973        1.0847628590        3.8396285705
 H        -0.7684561676       -0.5919227890        3.7508870724
 H         3.6374918515        3.1561652188        2.9589659092
 H         2.9755139296        4.2669200744        4.2537297988
 H         8.0768066217        2.3100442180        3.9986248905
 H         6.5159503025        1.3666309018        3.6394026023
 H         5.0865473300        5.5029534536        4.9336170136
 H         5.9036198276        5.0255991227        6.3560041162
 H         4.2580546104        4.9403019512        6.4265630544
 H         7.2039686005        3.0067947786        6.1660124144
 H         5.8960545481        2.3537014563        7.1993052192
 H         6.3975337542        1.4989651557        5.7868602768
 H         8.6558210713        2.2482517307        1.8766843329
 H         7.4968590719        3.5483250469        1.6751588789
 H         6.2441623264        2.3663193260       -2.3173873066
 H         7.2654006098        1.5183561735       -3.0361605299
 H         7.9323603195        3.1777286097       -1.1735548438
 H         9.0770683077        1.9546621362       -1.8610839920
 H         9.0888621183        2.4977890277       -0.1950483061
 H         9.1023237128        0.1500216254        0.7025198989
 H         7.8915700063       -0.9295640954        0.3676581417
 H         9.0271135108       -0.4484345990       -0.9507843477
 H         5.3170160220        1.5761009472       -4.5535450166
 H         5.1923309084       -0.1546492811       -3.8644668411
 H         1.4695451818       -1.6363350385       -4.2946457870
 H         0.6292901655       -1.9673260317       -2.8578451463
 H         1.5267601602        2.7067301830       -2.7178538449
 H         0.7623049384        2.3555179410       -4.2737596397
 H         2.2750832272        3.1494657401       -4.3165245023
 H         1.6489633682        0.6639564381       -5.6553122193
 H         3.1768696323        1.2234102815       -5.6907860937
 H         2.7917932554       -0.6516339046       -5.1936331250
 H        -0.4214280493       -0.1966646889       -5.1257143792
 H        -1.0879467846       -0.0319955606       -3.5883213782
 H        -5.5452789153       -1.8445615168       -4.6141606567
 H        -4.2622357921       -1.8160718244       -3.5159541919
 H        -2.0798462435       -0.9574104295       -7.0766925476
 H        -2.1467052319       -2.7288701291       -7.5465889598
 H        -0.7203271695       -2.1347571205       -6.5242519267
 H        -2.5300828504       -4.3482363555       -5.5283282421
 H        -3.9159706345       -3.7093230981       -4.5035892681
 H        -3.9544384483       -3.6316660645       -6.2400466319
 H        -5.7781822850        0.6920881039       -4.2012364623
 H        -6.0590522677       -0.2499832564       -2.7623871676
 H        -2.9905893826        1.4065823042       -0.2790003810
 H        -3.6346594253        2.9161196555        0.4008229786
 H        -4.1589990809        3.8614365167       -3.2150486362
 H        -2.9592008042        3.0526407808       -2.0572102197
 H        -4.2807199947        4.1334059151       -1.4627655020
 H        -7.1501794380        1.8838322389       -2.5394573292
 H        -6.6869883573        3.4496809930       -1.9139706474
 H        -6.3077814345        2.9192926319       -3.6995283744
 H        -4.9252132896        1.3975808907        2.0241797988
 H        -3.2716002167        1.8202726895        2.4043090825
 H        -6.1378291211       -1.8760412347        0.6167693571
 H        -5.8430339929       -3.4556849588        1.5699164517
 H        -3.6437902104       -3.2234202242        1.9844391084
 H        -4.3702855741       -3.3717773862        3.6482031621
 H        -2.6950646548       -2.6728868227        3.3965496758
 H        -3.1388161710       -0.4856756788        4.5813797342
 H        -4.2645891615        0.6624728263        4.1255117914
 H        -4.8598437916       -0.7790540324        4.9590888698
 H        -8.1723177916       -3.2117082682        2.6402023689
 H        -8.4255585050       -1.9166934909        1.5392399696
 H       -11.8400996021       -1.6275976776        1.1284328382
 H       -12.1550003885       -3.0189682867        0.1765798595
 H       -10.9328343081       -3.0945899939        1.4907005362
 H        -7.9840391001       -1.8864900273       -1.9558536605
 H        -8.9649713451       -2.7331404147       -2.7884073760
 H        -7.7188462058       -3.5946235696       -2.2150302003
 H        -9.2770857612       -5.3595235582       -1.4035207999
 H       -10.7950540498       -4.8341026750       -0.3928948239
 H       -10.5208769399       -4.3543217332       -2.1767253670
 Na        3.4829353740        0.2803613631       -0.0549873153
