155

 C         2.9254427226       -1.4170915848        4.1413994999
 C         2.5520486142       -0.8319842618        2.8056260989
 C         1.1519793157       -0.0967033415        2.5621213442
 C         1.5159690925        1.4691586195        2.5781061675
 C         0.8819293750        2.3614929854        3.7117800108
 C         0.6469053227       -0.6301745726        1.0885528142
 C         0.0913931131       -0.6469227971        3.4880451067
 O         3.2640650531       -0.9784433922        1.8707417693
 O         2.1040966407        1.9243308322        1.6142158445
 C         1.9306238492        3.2410371381        4.3088509290
 C         3.1094284017        2.5161567731        4.9174736392
 C         4.4159041944        3.3714137699        5.3161198624
 C         5.0987718396        3.3873919939        3.9876056536
 C         6.3286009415        2.4763072742        3.7255746956
 O         3.1241786529        1.3018184296        5.1229892080
 O         4.7297990501        4.1541720546        3.1475073673
 C         4.0293329395        4.8230379417        5.6037977245
 C         5.2351760431        2.7045977408        6.5032323669
 C         7.1456580353        2.6684415374        2.3614028039
 C         6.4437711308        1.6887817940        1.2274535732
 C         7.2081384672        1.4789125515       -0.0391804875
 C         6.1753877385        0.7612968714       -1.2261581865
 C         6.0574025260        1.4852889045       -2.4938337168
 C         7.9149859320        2.6497077505       -0.6667523455
 C         8.1074671459        0.2956618083        0.1727331329
 O         5.4051227139        1.0546205077        1.4958795636
 O         5.6806388074       -0.3206363051       -1.0171295898
 C         4.9846494711        0.8893340210       -3.4219108732
 C         3.5858852816        1.2239696567       -2.9065830066
 C         2.2382821531        0.7142703723       -3.5183280625
 C         1.8759587432       -0.5020023511       -2.6594833606
 C         0.9914244368       -1.5809446386       -3.3595217643
 O         3.4657776780        1.9412017782       -1.8844230349
 O         2.1593960606       -0.5641452785       -1.4721931732
 C         1.1529946689        1.8161134733       -3.3725022096
 C         2.4089487097        0.4328507496       -4.9947797306
 C        -0.4506061681       -1.1626180419       -3.7874718651
 C        -1.1309161274       -2.1377438852       -4.7871321584
 C        -2.0030072855       -1.4629481057       -5.9974201075
 C        -3.0177721086       -0.4224981773       -5.5840512314
 C        -4.0058664670       -1.0238783390       -4.5337653521
 C        -0.9061468656       -0.8148201494       -6.8735203386
 C        -2.7401414418       -2.6146787451       -6.7494985507
 O        -0.9107826110       -3.2806501966       -4.8492024483
 O        -3.0391544813        0.7208422851       -5.8577220146
 C        -4.6469786293        0.0274026405       -3.6771461669
 C        -3.7288808025        1.0202665623       -2.9573376649
 C        -4.4395822059        2.2294824484       -2.2528930321
 C        -4.8876552109        1.5948778701       -0.8364307110
 C        -3.8741659782        1.3431693079        0.3045163366
 O        -2.5058138791        1.0463558732       -2.8646402054
 O        -6.0728996614        1.2408303338       -0.6642128583
 C        -3.4205135797        3.4270310217       -2.1468353250
 C        -5.6397147971        2.6731427487       -3.0215154099
 C        -4.4637700520        0.6532086538        1.4777243039
 C        -3.6914963353       -0.5280049355        1.9528382951
 C        -4.1915283158       -1.2619626418        3.1539149518
 C        -5.8386511778       -1.6735077833        2.9024791610
 C        -6.0933941391       -2.9818593899        2.0344214501
 C        -3.2500006831       -2.5033857009        3.3504530789
 C        -4.0782662883       -0.2110742369        4.2712724594
 O        -2.7533251125       -0.9206682326        1.2995629878
 O        -6.6887525772       -0.8978355188        3.1905358785
 C        -7.0912571832       -2.6482020155        0.9322392515
 C        -8.1615041797       -3.6377745853        0.5301221594
 C        -8.7130587345       -3.6346776739       -0.9671364570
 C       -10.0236719720       -2.7156425201       -0.8394979806
 C       -10.9845418762       -2.9956994411        0.3506345102
 O        -8.7626208768       -4.2538433143        1.3534854445
 O       -10.3138940404       -1.9485427464       -1.7230061027
 C        -7.7375128104       -3.1968835168       -1.9899685056
 C        -9.2535402790       -5.0443967882       -1.2679813936
 H         2.3839508382       -2.3082318421        4.3595447282
 H         3.9633724804       -1.5721105014        4.1366988232
 H         2.6106156047       -0.6690572822        4.8415818524
 H         0.0964689468        3.0342383459        3.2778671271
 H         0.3680676983        1.7906812583        4.5108737262
 H         0.9401979609       -1.6296616402        0.8527866223
 H         1.0786035271       -0.0206356571        0.2684155795
 H        -0.4339947572       -0.6692787364        0.9844964271
 H         0.4211712703       -0.5295829839        4.4686267886
 H        -0.8407831887       -0.0919643329        3.2888448068
 H        -0.1454218998       -1.7352093762        3.4075250548
 H         2.4320268422        3.9437531561        3.6396882268
 H         1.7315928465        3.8699339816        5.1390671630
 H         7.0174275213        2.4347629100        4.6448042148
 H         5.9364493965        1.4769122072        3.7735656158
 H         3.9051363342        5.4625855418        4.7196393111
 H         4.8802239480        5.1711430641        6.0977547330
 H         3.2666915871        4.9621074274        6.3211599728
 H         6.2068579204        3.1808019678        6.5610670204
 H         4.6130395210        2.7870995656        7.4478246396
 H         5.4254198850        1.6207119621        6.4300007326
 H         8.2881414629        2.4667662202        2.5815582107
 H         7.0524633484        3.7484521566        1.9914327970
 H         5.5511892048        2.4614090953       -2.1599546785
 H         6.9829990102        1.4507902236       -3.1600748932
 H         7.2803698642        3.5300140968       -0.8180630816
 H         8.4422966502        2.3830351810       -1.6766764349
 H         8.7083626674        3.0306908208       -0.0850235400
 H         8.9394595447        0.5059338302        0.8784429121
 H         7.5224687566       -0.5233527931        0.7313589124
 H         8.4326932201        0.0813252316       -0.8281470520
 H         5.0777188946        1.3318130863       -4.4257975693
 H         5.0126951353       -0.1598702382       -3.6559614877
 H         1.3309723943       -1.8328260096       -4.3539777453
 H         0.9404471685       -2.4838999993       -2.7478061876
 H         0.6149909973        1.5587628785       -2.4468177757
 H         0.4387825894        1.9181765369       -4.2118402641
 H         1.6014681121        2.7591912389       -3.1959969339
 H         1.5667251463        0.5700381775       -5.6364390810
 H         2.9742146611        1.2339418130       -5.3761832480
 H         2.7784643394       -0.5852491266       -5.3066464471
 H        -0.4114771542       -0.1239922938       -4.1321817239
 H        -1.0184003233       -1.1160215665       -2.8880445857
 H        -4.7020386860       -1.6660342499       -5.0205004834
 H        -3.3364390188       -1.7191753255       -3.9666633393
 H        -0.1565106382       -0.1697136494       -6.4291646436
 H        -1.3524080765       -0.2104714887       -7.6541097918
 H        -0.3572772889       -1.6096992636       -7.3253174945
 H        -2.0556215271       -3.4215470798       -6.9399794143
 H        -3.6594133092       -3.0107550084       -6.2652448409
 H        -3.0741347086       -2.2288081999       -7.6862871554
 H        -5.2425209637        0.6633393046       -4.3390162071
 H        -5.3384640126       -0.3314646376       -2.8468397373
 H        -3.0443326400        0.7850175696       -0.0169796024
 H        -3.4359035777        2.2176595020        0.6684493576
 H        -3.2154422525        3.8745668720       -3.1214763125
 H        -2.4432817234        3.2347389954       -1.6315267061
 H        -3.7660554069        4.2665334889       -1.5124298669
 H        -6.3885422336        1.8897970073       -3.0886069947
 H        -6.1509251390        3.4783579432       -2.3393720639
 H        -5.4417632520        3.2794810078       -3.8841244931
 H        -5.3893183493        0.1964998354        1.0508547503
 H        -4.7978899650        1.2931145231        2.3021123524
 H        -5.0999969297       -3.4320731801        1.6819499027
 H        -6.5803474399       -3.7653489976        2.7413137328
 H        -2.8007162100       -2.7572586696        2.4281717140
 H        -3.7980399386       -3.3848379487        3.6795104876
 H        -2.4760269583       -2.2152791734        4.0051972065
 H        -3.8634577056       -0.6901901480        5.2295257786
 H        -3.3894845738        0.5705321463        4.0368404162
 H        -5.0178247076        0.2771753075        4.5222758788
 H        -7.6491988658       -1.8609562448        1.3712514140
 H        -6.6081001159       -2.2870013272       -0.0183690920
 H       -11.9819825646       -2.8606456731        0.0246159148
 H       -10.8352794149       -3.9338175054        0.8088921562
 H       -10.6898720737       -2.2331691141        1.1547170604
 H        -7.3924342194       -2.1528630415       -2.0604416544
 H        -7.9676659704       -3.2796009157       -3.0200033379
 H        -6.8344109846       -3.7328063757       -1.9681313034
 H        -8.5609731405       -5.8551159844       -0.9761332845
 H       -10.1931926446       -5.2608941867       -0.8115152282
 H        -9.4191703639       -5.1934894950       -2.2982744960
 Na        3.3595039449        0.6158288108        0.2071963360
