155

 C         2.5703902156       -2.1515520339        4.3925312965
 C         2.4009468768       -1.2442699585        3.0998466187
 C         1.0246878009       -0.6233796593        2.9583434512
 C         1.1201471525        0.8518335650        2.7109091512
 C         0.5903758761        1.9281592810        3.6372852280
 C         0.3435640399       -1.3193736713        1.7185380226
 C         0.0362010998       -0.8445630883        4.1952566831
 O         3.2503674836       -1.2307822558        2.2154142274
 O         1.5894636881        1.2994730533        1.6532587026
 C         1.4604004395        3.1523886792        3.8337609348
 C         2.7518490332        2.5744481674        4.5678123408
 C         3.7700393653        3.5443301462        5.1122983749
 C         4.9267571393        3.6485799435        3.9870033639
 C         6.0512301567        2.5878338677        3.8825061454
 O         2.9296125947        1.3885654029        4.6916298416
 O         5.0095124938        4.6988434567        3.3795415241
 C         3.0755142034        4.9633206169        5.1617342344
 C         4.2718051793        2.9828960249        6.4208186769
 C         6.7918687607        2.5208100411        2.5043302716
 C         6.0472463287        1.9523546279        1.3347259230
 C         6.9548983751        1.5806810790        0.0701656392
 C         6.0588744336        1.1410977024       -1.1629127979
 C         6.1032420155        1.9355770740       -2.5037648048
 C         8.0027983976        2.6583057456       -0.3629001068
 C         7.5777566048        0.1710865143        0.4188425081
 O         4.8249170624        2.0346984153        1.2680795566
 O         5.3526633781        0.2061616587       -1.0178745829
 C         4.8714096122        1.5331271120       -3.4774257002
 C         3.5132112660        1.5471680838       -2.7096375766
 C         2.2300058435        1.0130202631       -3.4579086020
 C         2.0389295230       -0.3958726979       -2.9092842986
 C         1.3605142658       -1.4600265231       -3.8374775143
 O         3.4510153010        1.9505061875       -1.5681390479
 O         2.1630458335       -0.5912628265       -1.7094110198
 C         1.0267676047        1.9691618709       -3.1220979766
 C         2.4865991968        1.0148493669       -4.9855880041
 C        -0.0973274335       -1.2017402352       -3.9850156372
 C        -0.8423014748       -2.0702453267       -5.0881749588
 C        -1.5059984489       -1.4305153911       -6.3730446091
 C        -2.4134566342       -0.2948049148       -5.9506968964
 C        -3.5921128267       -0.6665061051       -5.0764479990
 C        -0.3608256829       -0.9681420005       -7.3683532119
 C        -2.3992496493       -2.4324433181       -7.2088211604
 O        -0.6779628990       -3.2721500405       -5.0497146213
 O        -2.1747015873        0.8981655010       -6.1907610267
 C        -4.1159837423        0.4782556934       -4.2754180416
 C        -3.3056133008        0.9617691022       -3.0963354219
 C        -3.9884700473        2.0923446355       -2.1591213504
 C        -4.5648457842        1.2750740145       -0.9268260740
 C        -3.9984447071        1.5951723170        0.4210691211
 O        -2.1753065526        0.5789651447       -2.8231447941
 O        -5.4806397388        0.5310760310       -1.1028003789
 C        -2.9039309852        3.0397394637       -1.7679808612
 C        -5.1117051337        2.8845875942       -2.8796854006
 C        -4.7172594388        0.7080185121        1.4085338697
 C        -3.7635811559       -0.2539991644        2.2627591780
 C        -4.5175765777       -1.1404252692        3.3779180832
 C        -6.1057022116       -1.4421238338        3.0524967104
 C        -6.3686659698       -2.4500560376        1.9637808505
 C        -3.8001710424       -2.5368927089        3.4003666389
 C        -4.4238695013       -0.3455762821        4.6584682780
 O        -2.5396119131       -0.2704184655        2.2389354217
 O        -6.9661996042       -0.9409639462        3.7711881813
 C        -7.7302421205       -2.5467158533        1.2581262612
 C        -7.9458094953       -3.9285912764        0.4884753595
 C        -8.6319446501       -4.0413727461       -0.9716015460
 C        -9.7244308462       -2.9251976755       -1.0505361347
 C       -10.9852434983       -3.0794993973       -0.2432795699
 O        -7.5237338727       -4.9292569579        0.9846410244
 O        -9.4748751239       -1.8660157708       -1.5809340809
 C        -7.4863127842       -3.7479990743       -1.9939820332
 C        -9.0967327966       -5.4282405307       -1.0292075800
 H         1.8887988439       -3.0326217505        4.5235757816
 H         3.6341642959       -2.4893812177        4.4687518359
 H         2.5191519659       -1.4098716973        5.2060328742
 H        -0.2200064182        2.2330070832        3.0845844902
 H         0.2225528692        1.6120338252        4.5806816922
 H        -0.4425195025       -2.1064713650        2.0289418768
 H         0.9747075159       -1.7484384922        0.9976021097
 H        -0.0628955104       -0.5879804487        1.0724091943
 H         0.4516282442       -0.4044648084        5.0680999689
 H        -0.9211023643       -0.3111434156        4.0520627403
 H        -0.1123508594       -1.9156603765        4.2503609706
 H         1.5641700788        3.7545174541        2.8714028505
 H         1.0079879010        3.8005092007        4.4988547720
 H         6.9137167382        2.7809042330        4.5551224105
 H         5.7000594325        1.6797263488        4.1753748386
 H         2.8152685607        5.3159436574        4.1945042726
 H         3.8033125624        5.6462408150        5.6980053944
 H         2.1081422800        4.8625833054        5.7622676522
 H         4.9400857696        3.6703665151        6.8581892653
 H         3.4789047861        2.9708329512        7.1815092454
 H         4.7679563738        2.0646682729        6.3644467534
 H         7.6184925034        1.8705751189        2.7700200671
 H         6.9837942023        3.5016961752        2.2220936799
 H         5.9907679367        2.9907747654       -2.2152888705
 H         6.8651838239        1.5410742597       -3.0883335181
 H         7.5022337736        3.5346474760       -0.8105498947
 H         8.7390521532        2.2792969853       -1.0735841266
 H         8.5284364632        2.8531168252        0.5323835691
 H         8.5197732282        0.2783946917        0.9290490638
 H         6.8377763806       -0.3376183723        0.9479917870
 H         7.7627233948       -0.3884153960       -0.5050697337
 H         4.8147107800        2.1844080224       -4.3512427355
 H         5.0034286338        0.5793892338       -3.9110960212
 H         1.8819827062       -1.6313345129       -4.7542693708
 H         1.4855766492       -2.4056771465       -3.2890023678
 H         0.6002694976        1.6938878062       -2.1616367632
 H         0.2693117992        1.8581522728       -3.9230174908
 H         1.3790110931        3.0150277193       -3.0808819690
 H         1.6584295665        0.5192741838       -5.4979704012
 H         2.7279203039        1.9721336695       -5.3992530722
 H         3.3487497092        0.4834400380       -5.2288135077
 H        -0.1039722573       -0.1090449118       -4.2062605426
 H        -0.6692451256       -1.2828210593       -2.9903863554
 H        -4.2086099799       -1.1408496422       -5.8557521994
 H        -3.2110277445       -1.5266749208       -4.4405088685
 H         0.3661504904       -0.2150170504       -7.0206043431
 H        -0.8928102766       -0.4944279892       -8.2367110782
 H         0.1953086539       -1.7248288606       -7.9186166753
 H        -1.8127922683       -3.3157490379       -7.4572611718
 H        -3.3637742555       -2.8010967939       -6.7269245880
 H        -2.5970981462       -1.9399718028       -8.1550180443
 H        -4.3477256997        1.2774276827       -5.0013074432
 H        -5.1268748361        0.2657925095       -3.8552566100
 H        -2.8419809075        1.6125581339        0.5018857162
 H        -4.3914002816        2.6439747876        0.6319192439
 H        -2.5765391965        3.7051822610       -2.6152641732
 H        -1.9939787952        2.7019007836       -1.4215042205
 H        -3.2233614199        3.7856896178       -1.0574311134
 H        -6.0697385121        2.3154879216       -2.9769097616
 H        -5.2280824804        3.7234138410       -2.2853220870
 H        -4.8938055397        3.1364715433       -3.8961277684
 H        -5.4224906579        0.1341187133        0.8227126273
 H        -5.1677100599        1.3572510436        2.1404617554
 H        -5.5533513995       -2.4400948436        1.2818069581
 H        -6.3528742071       -3.3660011541        2.4329660279
 H        -3.7344079519       -2.8742943424        2.3394978694
 H        -4.2944280629       -3.2800902741        4.0346143875
 H        -2.8429328090       -2.4259137589        3.8671759464
 H        -3.9653639211       -0.9466453768        5.4505205894
 H        -3.7621771847        0.5337155377        4.5310059455
 H        -5.4332300452        0.0185380154        4.9231399854
 H        -8.5863936096       -2.3195020033        1.9749285554
 H        -7.8794378474       -1.7642176778        0.4943215899
 H       -11.7761188103       -2.2882499240       -0.5270438982
 H       -11.5158661147       -4.0402453060       -0.4656733296
 H       -10.7565377931       -2.7637536240        0.7272768172
 H        -7.3153576902       -2.6840770173       -2.1610214325
 H        -7.5583566416       -4.1562425692       -3.0164904007
 H        -6.4109463761       -4.0360791118       -1.7579028560
 H        -8.2177101290       -6.1301390018       -0.9517901077
 H        -9.7347444423       -5.7557398194       -0.2129678770
 H        -9.5071606234       -5.8051916649       -1.9925034468
 Na        3.3321558316        0.3278045437        0.2028687923
