155

 C         2.6124485810       -3.1190803310        3.1634799630
 C         2.3294229882       -2.2391099326        1.8966741547
 C         0.8845069199       -1.8863114057        1.5244931848
 C         0.7000263946       -0.3514580344        1.7624495185
 C        -0.4244915146        0.2006015858        2.7231385694
 C         0.5615044925       -2.1162439366        0.0259674478
 C        -0.1180236607       -2.7069586921        2.4122893483
 O         3.2803785969       -1.8880089820        1.1954296715
 O         1.5048711686        0.4799300249        1.4003058752
 C        -0.3460024328        1.7910818677        2.9276626681
 C         0.9693769283        2.1675205965        3.8041089398
 C         1.2620338966        3.7576722884        3.9892462221
 C         2.8175954781        3.8658585285        3.4194402785
 C         3.8287591604        3.3595562626        4.3828417474
 O         1.5041041518        1.2867180312        4.4275731028
 O         3.0876050182        4.1989943718        2.2730143596
 C         0.4372024182        4.6380011847        3.0529086014
 C         1.2442776207        4.1346598281        5.4588263219
 C         5.1376186247        3.0286318270        3.6553381952
 C         4.9585648326        2.0245203530        2.4218180914
 C         6.3107621119        1.5971201404        1.7053127234
 C         6.0576386393        1.6484743153        0.1858599690
 C         6.4344884511        2.9758065331       -0.5743181150
 C         7.5500969250        2.5180908633        2.1136373657
 C         6.7284026878        0.2313476391        2.1828528985
 O         3.8726813047        1.5960889708        2.2371157911
 O         5.5427565795        0.6394578687       -0.3424339764
 C         5.6070881957        2.9284500374       -1.9483098766
 C         4.0545547353        2.7467421377       -1.7476518557
 C         3.2342022623        2.3181735414       -2.9625008025
 C         3.2289559927        0.7162610814       -3.1612270852
 C         2.9983703758       -0.0348064299       -4.5178019023
 O         3.4925408279        2.8802271471       -0.6286327701
 O         3.4986199027        0.0853072057       -2.1686774479
 C         1.7295901462        2.8311831608       -2.9571397172
 C         3.8366799175        2.8055540560       -4.3238402627
 C         1.5680017550        0.1187488211       -4.9969221531
 C         1.1475072104       -0.5754356892       -6.3616307306
 C        -0.1525546918       -1.4162893035       -6.4404963375
 C        -1.5106262126       -0.7285835887       -5.8043650881
 C        -1.8952000382       -1.0067960642       -4.3280154389
 C        -0.4426959687       -1.6538039718       -7.9094892384
 C         0.1815832924       -2.7464301302       -5.6313827880
 O         1.9276553092       -0.6271114352       -7.2773366831
 O        -2.2283212147       -0.0250684396       -6.5022895187
 C        -3.0351222234       -0.1492698543       -3.7603152160
 C        -2.5615361673        0.6075393904       -2.5081668968
 C        -3.5074770277        1.7224759998       -1.9517897118
 C        -4.3383507922        1.0978563583       -0.8551406210
 C        -3.8222837741        1.3198576869        0.5871408251
 O        -1.5026884321        0.4463772738       -1.9772428319
 O        -5.3047638115        0.3647690967       -1.0231206809
 C        -2.6629845840        2.8679478593       -1.4074466550
 C        -4.3944457710        2.2331553281       -3.1446657240
 C        -4.9859386466        1.0633397405        1.6271277739
 C        -4.6518496378        0.1314752521        2.8975594086
 C        -5.8203639164       -0.2609786074        3.8600574501
 C        -6.8680951997       -0.9940366776        2.8861047677
 C        -6.5496550627       -2.3639633056        2.2629980995
 C        -5.2831953908       -1.1905613445        4.9543685781
 C        -6.4858523145        0.9626999356        4.4118308490
 O        -3.5092548189       -0.1369252861        3.2440849591
 O        -7.8955872445       -0.4753809566        2.6317806749
 C        -6.8799319033       -2.4903489415        0.6984201410
 C        -6.7969138771       -4.0807217695        0.3796997794
 C        -7.4170441241       -4.6505024233       -0.9244167217
 C        -8.9519397995       -4.4019705046       -1.0366142737
 C        -9.9267496860       -5.1686690538       -0.1537516821
 O        -6.2462093061       -4.7904929695        1.2125536834
 O        -9.3707000881       -3.4943809616       -1.7449173808
 C        -6.6088894389       -3.9743921928       -2.1278941310
 C        -7.1024370159       -6.1667566799       -0.9342837792
 H         3.6297827034       -3.4418009323        3.0745188255
 H         2.5021242523       -2.7270261355        4.1402038824
 H         2.0134031019       -3.9979769340        3.1873854137
 H        -1.3453761214       -0.0130960292        2.2076283323
 H        -0.5935241709       -0.1985022203        3.7705478793
 H         0.8641295506       -1.2531855833       -0.4343800856
 H        -0.5581295124       -2.2155186786       -0.0744770922
 H         1.0824042021       -3.0011074508       -0.2829082633
 H        -0.1591592562       -2.4193715243        3.4083366385
 H        -1.1687775449       -2.5188346509        2.0823313144
 H         0.0560340884       -3.7753082193        2.2819288279
 H        -0.6794110675        2.3685962044        1.9743465077
 H        -1.0529752774        2.1174638487        3.6182219267
 H         4.2071068866        4.0913335694        5.1679178823
 H         3.3856964024        2.4654538551        4.7530487235
 H         0.7080568601        4.4763579662        1.9553165352
 H         0.5906458113        5.6716177980        3.2603155686
 H        -0.5774145231        4.4490240343        3.1177840259
 H         1.8535202764        5.0581500294        5.7199236199
 H         0.2441777770        4.4218767876        5.6968379448
 H         1.4546708583        3.2692934480        6.1375655233
 H         5.6957796066        2.4541618597        4.4199952539
 H         5.5800203666        3.9612039339        3.3731192470
 H         6.0721809309        3.7554086947       -0.0193258674
 H         7.4164142385        3.0694499612       -1.0197353490
 H         7.5156730469        3.5748037011        1.9223503902
 H         8.4478464267        2.1651810210        1.5721651359
 H         7.9405855912        2.3877552723        3.1344705883
 H         6.6638405845        0.0041607123        3.2206696759
 H         6.1089705914       -0.6325766649        1.8121352047
 H         7.6927059440       -0.0173130329        1.8448804272
 H         5.6839648332        3.8548428065       -2.4898451766
 H         5.8837488921        2.0924390338       -2.5381633448
 H         3.6500674694        0.3988735783       -5.2716611986
 H         3.3687383371       -1.0650086776       -4.2519427943
 H         1.2020247466        2.6643450405       -2.0128831503
 H         1.1520107692        2.3319946208       -3.7053328017
 H         1.6352455939        3.9205337901       -3.2461212378
 H         3.2076277681        2.3735490621       -5.0760195985
 H         3.8642103693        3.9195771870       -4.4221830839
 H         4.9310662073        2.5742696011       -4.4472195343
 H         1.3900674641        1.2309788102       -5.0701998411
 H         0.9139968085       -0.2739838684       -4.1960751713
 H        -2.1907218195       -2.0527846450       -4.3814392315
 H        -1.0517131996       -0.7493889228       -3.5726792219
 H        -0.5843831347       -0.7073342983       -8.3924440752
 H        -1.3086177900       -2.2544829113       -8.1138744709
 H         0.2919574894       -2.2207360831       -8.4432753419
 H         1.0864773101       -3.1963679594       -6.0794736855
 H         0.4739233435       -2.4664759428       -4.6135895827
 H        -0.6223168065       -3.4836221256       -5.7259545511
 H        -3.3219777980        0.5275549984       -4.5860262143
 H        -3.9991123240       -0.6881629336       -3.5612242372
 H        -2.8867056784        0.6690001194        0.7109758628
 H        -3.4835591808        2.3798457510        0.6838664677
 H        -2.1084746314        3.2944097302       -2.2135729980
 H        -1.8366955440        2.5088042321       -0.7438165111
 H        -3.3376727591        3.6068721611       -0.9916391607
 H        -4.9844731736        1.4229716674       -3.5287224867
 H        -5.0215836271        3.1039856402       -2.8439956909
 H        -3.7319315245        2.4963646071       -3.8740798580
 H        -5.9201479373        0.6044123917        1.2445745525
 H        -5.1827419768        2.0124583588        2.1707029836
 H        -5.5564264120       -2.6620018685        2.3358966792
 H        -7.1320206645       -2.9848559243        2.8859149445
 H        -5.4541181572       -2.2573452613        4.7074160157
 H        -5.8109483885       -1.0397474456        5.8944965407
 H        -4.2563875756       -0.9271362813        5.2962617744
 H        -7.2312014165        0.6498418489        5.1393700799
 H        -5.7876594475        1.6244860858        5.0123305694
 H        -6.9270242739        1.4690380344        3.5589308262
 H        -7.9391640145       -2.1688405265        0.5449882596
 H        -6.2769586762       -1.8140066005        0.1988895936
 H        -9.8415601663       -4.6988295398        0.8880754737
 H       -10.8946049368       -5.1186443977       -0.6405423640
 H        -9.5731932041       -6.2255514984       -0.0438465430
 H        -7.1775822032       -3.1418472707       -2.5000764672
 H        -6.4048119431       -4.7077041832       -2.8848099282
 H        -5.6503973175       -3.7421989524       -1.7437013581
 H        -6.0970231788       -6.4120912866       -0.8427928244
 H        -7.6526172641       -6.5682521128       -0.1170242080
 H        -7.5336630584       -6.4284348456       -1.8713407476
 Na        3.3652800192        0.1131157362        0.0080370965
