155

 C         1.3780399807       -3.3679183927        2.1613043880
 C         1.5923337714       -2.2352315970        1.0964031820
 C         0.3891318066       -1.8162045554        0.1319955084
 C         0.2821032319       -0.3007764011        0.5888815777
 C        -0.7811794052        0.1496831059        1.5907394539
 C         1.0369210520       -1.8077114000       -1.3605815499
 C        -0.9903138343       -2.5818337754        0.2841481194
 O         2.6769529511       -1.6952304474        1.0448295012
 O         1.1562263959        0.4984499857        0.2152121104
 C        -0.6196111716        1.5687565350        1.9039798035
 C        -0.1450453795        1.8207407976        3.2931558315
 C         0.2303049337        3.3252293437        3.8912659326
 C         1.8510646650        3.2663048030        3.6224848109
 C         2.8300218089        2.5636766663        4.6621079484
 O         0.0138395155        0.8916126102        4.0223969282
 O         2.3140620799        3.8491336879        2.7040268330
 C        -0.2951606762        4.4437166335        2.9463721859
 C        -0.0778538326        3.4214032158        5.3691948917
 C         4.2683263908        2.8302878570        4.2779551415
 C         4.6624897598        2.2516869107        2.9052628059
 C         6.1976538993        2.2260044888        2.4218805291
 C         6.2607503691        2.0375504910        0.8282634650
 C         6.7989090752        3.3206764850        0.1143262721
 C         6.8187392193        3.5109989801        2.9699128790
 C         6.7758656329        0.9460333649        3.1319458081
 O         3.8556893877        1.5774311728        2.3532894978
 O         6.0409238998        1.0028559433        0.2270422411
 C         6.1306167672        3.1976680520       -1.3446311371
 C         4.6663385727        3.1440310688       -1.2637497475
 C         3.7450549606        2.8783612712       -2.5035343661
 C         3.9070747106        1.2861228346       -2.7714191640
 C         3.4259682635        0.6627387206       -4.1666616107
 O         4.1296240631        3.4501601114       -0.2163151476
 O         4.2997522987        0.5000446938       -1.9205449243
 C         2.2241066544        3.1381689627       -2.1203791663
 C         4.2338775861        3.5447338858       -3.7703746270
 C         2.0937991910       -0.0110663914       -4.1078672145
 C         1.6415097788       -0.5257953160       -5.5071943699
 C         0.2763926152       -1.4090030391       -5.6175724751
 C        -0.9579780528       -0.7003195553       -4.9209894268
 C        -2.3835849223       -1.4446283093       -4.9334766080
 C        -0.0645033612       -1.4128606120       -7.0955861157
 C         0.5508454830       -2.8133866935       -5.1819112623
 O         2.3759544909       -0.4341465253       -6.4446186006
 O        -0.8910705915        0.4398670975       -4.5887160003
 C        -3.3542280402       -0.6646950145       -4.0827055400
 C        -2.6162274446       -0.1348815882       -2.8908417805
 C        -3.0936805131        1.2028343650       -2.2856089577
 C        -4.0471941012        0.8831211967       -1.0979245039
 C        -4.6562897012        2.0202187737       -0.1814963517
 O        -1.7870649602       -0.8780883008       -2.3438568869
 O        -4.5487450878       -0.1888699224       -1.0700236114
 C        -1.8855071207        1.9098731596       -1.5646936462
 C        -3.8147052743        2.0173570123       -3.3097747982
 C        -5.7606127922        1.4014880283        0.7541820867
 C        -5.1020908702        1.0117711179        2.1121247586
 C        -5.8779676953        0.0011037341        3.0975286328
 C        -6.5836401514       -1.2036169953        2.3508326104
 C        -6.0815484249       -2.6352077693        2.4240358498
 C        -4.9122511146       -0.3698972619        4.2127290991
 C        -6.9389341116        0.9735433918        3.7821141330
 O        -4.2712332419        1.6938016405        2.5687383734
 O        -7.6032557936       -0.8583625335        1.7364691424
 C        -7.0246874472       -3.5031865374        1.6083686561
 C        -6.3188647897       -4.5508978730        0.6323191803
 C        -6.9218047501       -4.6706723687       -0.7660056708
 C        -8.3882923242       -5.1778602017       -0.5178673651
 C        -8.5870158170       -6.6106531478        0.0838724620
 O        -5.4084369310       -5.2880334039        0.9932516106
 O        -9.2822472858       -4.3617710943       -0.6126568496
 C        -6.8931580483       -3.3303183707       -1.6740025877
 C        -6.1738500300       -5.8869623121       -1.5009230673
 H         1.5877377439       -4.2495416637        1.6274355909
 H         2.2081099906       -3.2007358972        2.8449283188
 H         0.4687126292       -3.5272819129        2.6734773630
 H        -1.7405192036       -0.2501591501        1.4375059862
 H        -0.3581924645       -0.3574795467        2.5582042728
 H         1.9101118109       -2.5164937783       -1.2981300870
 H         1.5513090360       -0.9258085513       -1.5704828105
 H         0.2778874093       -2.0013698312       -2.1601573393
 H        -1.3227654149       -2.3378859918        1.3434207156
 H        -1.7365924604       -2.2667263439       -0.3625422909
 H        -0.8090904003       -3.6417571413        0.1414571918
 H         0.0515878771        2.0809212212        1.2282376096
 H        -1.6766377501        1.9728910769        2.0115155604
 H         2.4974824307        2.8236708330        5.6701194168
 H         2.6809909418        1.4512333030        4.7848693047
 H        -0.3887776312        4.0980886962        1.9700404411
 H         0.3918249272        5.2822465933        2.9646102260
 H        -1.3085316253        4.7513492272        3.2644132366
 H         0.2593491281        4.3994642455        5.6696614457
 H        -1.2112914339        3.4404590366        5.5892403485
 H         0.3292718965        2.5846351403        5.9702181056
 H         5.1624667282        2.5273766560        4.9634856247
 H         4.5142363773        3.9056996138        4.3195037605
 H         6.5828054439        4.2897584170        0.5904107929
 H         7.9059903284        3.3791651912        0.1472738825
 H         6.1049641689        4.3808452697        2.7908778323
 H         7.7439224325        3.6850571556        2.4583315650
 H         7.0758273958        3.4854385774        4.0613095468
 H         6.8398054511        1.0553251673        4.1921940448
 H         6.2062362200        0.0591247355        2.9065127275
 H         7.7430838939        0.7136748692        2.7522418760
 H         6.4166835546        4.0341771718       -2.0235174204
 H         6.4822667642        2.3187613693       -1.9379460858
 H         3.5636995049        1.5218155204       -4.8722601747
 H         4.2462317853        0.0200673956       -4.4234214743
 H         2.0772503204        2.4152580040       -1.2988575196
 H         1.5186774054        2.8625920248       -2.9479499837
 H         1.9773362247        4.1301751381       -1.7903039533
 H         3.4180527362        3.4536820969       -4.5610114199
 H         4.5775787989        4.5740225430       -3.7382820648
 H         5.1274453469        2.9904839692       -4.0352545574
 H         1.2868386481        0.5702548899       -3.6655463302
 H         2.2142166579       -0.9022192492       -3.5192451856
 H        -2.6412532086       -1.5191415095       -5.9780915563
 H        -2.3498859182       -2.5330960101       -4.6966237317
 H        -0.0575137330       -0.4014475492       -7.5043486618
 H        -1.0380953465       -1.8435939923       -7.3140430898
 H         0.7023628892       -2.0101324518       -7.6066076256
 H         1.5922210330       -3.0449542924       -5.5012630998
 H         0.7005998518       -2.9803731805       -4.1512440822
 H        -0.0228106494       -3.5821323615       -5.7032461947
 H        -3.7856486218        0.0494785480       -4.8112828342
 H        -4.2048304538       -1.2384710009       -3.6068394646
 H        -3.9772687598        2.3701463199        0.6254401825
 H        -4.9925081810        2.8045302945       -0.8914731259
 H        -1.1968627885        2.3404621613       -2.2977985676
 H        -1.3830161222        1.0810200998       -1.1023137815
 H        -2.3264803794        2.6606828122       -0.8686199562
 H        -4.7251264373        1.5951145431       -3.7014906126
 H        -4.1159701538        2.9575694454       -2.9641352327
 H        -3.1597755402        2.1332999842       -4.2636510854
 H        -6.2599652977        0.5014796291        0.3275430106
 H        -6.5959043548        2.1352495124        0.8418621904
 H        -5.0528493220       -2.7251426611        1.9402022302
 H        -5.9753391290       -2.9531864453        3.4688323158
 H        -4.2918221016       -1.2085684970        3.8528267694
 H        -5.4684151541       -0.5817373649        5.1653697180
 H        -4.4071970900        0.5129999989        4.5702465116
 H        -7.5001590851        0.4061226580        4.5588911112
 H        -6.6685724935        1.8558756206        4.3314801848
 H        -7.6630883617        1.3256554568        3.0117584508
 H        -7.7488754856       -3.9968200678        2.3293187890
 H        -7.7073535433       -2.9504777770        1.0143984475
 H        -8.1284293033       -6.9117581298        0.9831352944
 H        -9.6235948914       -6.6298965442        0.3556975941
 H        -8.3462942257       -7.2635477734       -0.7684373387
 H        -7.2189796822       -2.6082794562       -0.9472302047
 H        -7.6593332588       -3.4626264435       -2.4116926294
 H        -5.9285910060       -3.0973584609       -2.1120074813
 H        -5.5807482030       -6.5344791671       -0.8318472198
 H        -6.8594382275       -6.4971908328       -2.0149941940
 H        -5.5053673043       -5.5376841969       -2.2355187456
 Na        3.5847397981        0.4069125747        0.2876639803
