155

 C         1.7074753713       -2.9938839234        2.4161379718
 C         1.8583805547       -1.9104097086        1.3818523794
 C         0.5889711211       -1.4376168677        0.3995936615
 C         0.1282723352       -0.0167776698        0.7051635870
 C        -1.3186522756        0.1629336535        1.2883412417
 C         1.0917363952       -1.4649373368       -1.1833597550
 C        -0.4936976165       -2.4865000362        0.4954101530
 O         2.9695515974       -1.3638370865        1.2982855172
 O         0.8841584726        0.9127749752        0.5418063785
 C        -1.3682106053        1.5646822982        1.9256705987
 C        -0.3943772035        1.5557067823        3.2117928118
 C        -0.0652285637        2.9270041358        3.9098465617
 C         1.3851194297        3.2861312048        3.8732884073
 C         2.3158105060        2.3022456463        4.6581234143
 O         0.0956077685        0.5190743675        3.6446499883
 O         1.8291779208        4.0744186433        3.1261596165
 C        -0.8881419732        4.0879466286        3.3246473867
 C        -0.5771461987        2.6867823290        5.3536111171
 C         3.7622503160        2.7027006306        4.3575195269
 C         4.3176620441        1.9962989609        3.2156767952
 C         5.8837290371        2.2593322933        2.8127832456
 C         6.1679454472        1.8705465838        1.3627834837
 C         6.5337617383        3.0485948176        0.3750456469
 C         6.4177057596        3.6666665986        3.2229051765
 C         6.6918867164        1.1792569510        3.5988246721
 O         3.7438586768        1.2025754555        2.5473765318
 O         6.0178172621        0.7630168502        0.8250255607
 C         6.1473532863        2.9057435315       -1.0925483651
 C         4.5751712696        2.8424905987       -1.1715174205
 C         3.8020258508        2.8746873371       -2.5359026298
 C         3.8944212081        1.2994244064       -2.9661904747
 C         3.8141891476        0.8632419961       -4.4400140812
 O         3.9825571564        2.6896979001       -0.1497787608
 O         3.8371896375        0.4503642562       -2.1102741651
 C         2.3599572200        3.3303762400       -2.3284693701
 C         4.4059019974        3.8011542351       -3.6519166300
 C         2.3568800845        0.3596150913       -4.6037877674
 C         1.9079973381       -0.3253347074       -6.0314293209
 C         0.7784009816       -1.5168493856       -5.8508510787
 C        -0.4041412584       -0.8681452899       -5.1048523006
 C        -1.6847399776       -1.6862455663       -4.9733596794
 C         0.2068475440       -1.7387955869       -7.2561407003
 C         1.4674874484       -2.7900728613       -5.2526785776
 O         2.3024598998        0.0604715557       -7.1098893549
 O        -0.4199066734        0.3321180835       -4.8771318800
 C        -2.8248125592       -0.7260765849       -4.3847968618
 C        -2.5289137112       -0.1574261297       -2.9523231097
 C        -3.2877079861        1.2266380888       -2.4113321556
 C        -4.4297395709        1.0240657060       -1.2997812600
 C        -4.9582687604        2.1978822685       -0.3795655207
 O        -1.8375332106       -0.7161426983       -2.1121614055
 O        -4.9041306589       -0.1017543362       -1.1275289895
 C        -2.1146715331        2.1261443738       -1.7428236111
 C        -3.7444171531        1.9913136701       -3.6136414629
 C        -6.0099927745        1.7022256779        0.6989321381
 C        -5.2269827915        1.2216852451        1.9633915387
 C        -5.8035322488        0.1419339171        2.9148155490
 C        -6.5003486381       -0.9548602919        2.0895632539
 C        -5.7348307914       -2.2930638979        1.6843205206
 C        -4.6850675809       -0.2943469058        3.9594207471
 C        -6.9700673398        0.9089143158        3.6355486045
 O        -4.2302207029        1.8863775293        2.3163321727
 O        -7.5905520928       -0.7497860548        1.5769876599
 C        -6.7214166378       -3.4672464884        1.7117534283
 C        -6.0709606085       -4.4872625090        0.8360125838
 C        -6.7675957950       -4.8064022690       -0.5963399489
 C        -8.1308570761       -5.7000808973       -0.2118477624
 C        -7.8465857783       -7.1610776461       -0.0455218536
 O        -5.0021313668       -5.0017369930        1.0687808572
 O        -9.2104100521       -5.1632579422       -0.3024465240
 C        -7.1735329067       -3.4333342123       -1.2644533604
 C        -5.8455447943       -5.5127988286       -1.5690334103
 H         2.0834155045       -2.6198558035        3.3525488613
 H         0.7025049451       -3.3807280879        2.4837692639
 H         2.4490332519       -3.7422641766        2.1168756861
 H        -1.9823368574       -0.1304812955        0.4096170133
 H        -1.4918139771       -0.6732000673        1.9155507863
 H         0.3989712884       -2.1559613462       -1.7571414038
 H         2.1904618172       -1.6880830618       -1.2677936847
 H         0.9062378463       -0.6067910420       -1.7803151613
 H        -0.9097200836       -2.5124209304        1.4691231582
 H        -1.2507624922       -2.4029293088       -0.3025149679
 H        -0.0258351718       -3.5112730102        0.4238675932
 H        -1.0939614719        2.3873325505        1.2201234129
 H        -2.2694002645        1.7116811249        2.3612727209
 H         2.2280910311        2.4082646594        5.7921866679
 H         2.1075566556        1.2613178176        4.4435946506
 H        -0.8131763180        4.2934338206        2.2814358581
 H        -0.6286918146        4.9456714365        3.9541413161
 H        -1.8881820546        3.7695795865        3.6142003457
 H        -0.2384886900        3.4776899721        6.0667595490
 H        -1.6703786079        2.6051701329        5.3745120735
 H        -0.0759164906        1.7428037126        5.6188815001
 H         4.3701335686        2.5387612692        5.2407468247
 H         3.9017931790        3.8103967371        4.0986661081
 H         6.0878136659        3.9148496385        0.7043482997
 H         7.4870580460        3.4681898997        0.7549427392
 H         5.8243896558        4.4630151365        2.8878865571
 H         7.4714348969        3.7173431194        2.7634582737
 H         6.4823156852        3.5952000685        4.3112424237
 H         6.6340376477        1.3501059200        4.6776366024
 H         6.3098161836        0.2668762150        3.3423079581
 H         7.7563798833        1.2895077214        3.3360690793
 H         6.4549157673        3.9413798088       -1.5242288912
 H         6.7001524407        2.1076186300       -1.7327037793
 H         3.9698962236        1.5800486486       -5.1978288926
 H         4.5501820265        0.0892701625       -4.5753985325
 H         1.8311184438        2.9260148710       -1.4535062545
 H         1.8815128149        3.0701313312       -3.2436005836
 H         2.3123344459        4.4558298806       -2.3178326204
 H         3.6891181329        4.1884757182       -4.3710029503
 H         4.7834579928        4.6495554064       -3.1373127562
 H         5.1921489298        3.2991995291       -4.2804111702
 H         1.6441896505        1.1859231366       -4.5977217431
 H         1.9823607118       -0.3728489618       -3.9167846808
 H        -2.0160487461       -2.0423221480       -5.9525782967
 H        -1.5001247583       -2.5800093600       -4.4195247113
 H        -0.2434566610       -0.8184862353       -7.5842888448
 H        -0.4353543824       -2.5901491176       -7.2669781681
 H         1.0610371587       -2.0110938970       -7.8781129898
 H         1.9579861616       -3.3500025015       -6.0430020252
 H         2.1902778660       -2.7364954949       -4.4309105300
 H         0.6583119378       -3.3648341617       -4.7648318066
 H        -2.8625733082        0.0314812229       -5.1419634597
 H        -3.7530452949       -1.3023358985       -4.3935007729
 H        -4.0862350853        2.5484799993        0.1625309729
 H        -5.2777362854        2.9537472138       -1.0741702724
 H        -1.6769129651        2.6189552514       -2.5820932155
 H        -1.4033479093        1.5121231285       -1.0862588260
 H        -2.6083997963        2.9158348648       -1.1994111846
 H        -4.6237665345        1.4395248297       -4.0277593501
 H        -4.0317921515        3.0666147642       -3.5031711177
 H        -2.9677308256        2.1016014348       -4.3710454313
 H        -6.5587081393        0.9397694341        0.1722138217
 H        -6.6778489045        2.5114518575        0.9141258089
 H        -5.3170838936       -2.0758497200        0.6502718383
 H        -4.8901629280       -2.4408452872        2.4513486771
 H        -5.0896264810       -0.3042283245        4.9784471546
 H        -3.8634967130        0.4336255900        3.8302694859
 H        -4.3849020924       -1.3314863573        3.6441066580
 H        -7.6433074741        0.2287032771        4.1444030608
 H        -6.5287283305        1.6900485193        4.3023329452
 H        -7.6881097815        1.4753571360        3.0498220320
 H        -6.7849884219       -3.8936102914        2.7344150147
 H        -7.6953792894       -3.1795009229        1.3549960656
 H        -6.7668009998       -7.2668582304        0.1785457828
 H        -8.4872573140       -7.5466092321        0.7935887124
 H        -8.0353521215       -7.6449558385       -0.9278913416
 H        -8.0013603992       -2.9200143635       -0.7870019095
 H        -7.4172183445       -3.6900512431       -2.2632482701
 H        -6.2479140888       -2.9550526243       -1.3453648722
 H        -6.3337118105       -6.0915606877       -2.3621719451
 H        -5.1968342833       -4.8503936484       -2.1185629318
 H        -5.2033704410       -6.1474791435       -1.0582082145
 Na        3.2523407173        0.5362163227        0.2278925685
