155

 C         0.0901371909       -8.0987652873        3.5037085124
 C        -1.4281084223       -8.2541692716        3.2298282204
 C        -1.6487365880       -8.7443334948        1.7122642115
 C        -1.6931286240       -7.4155660692        0.9637017024
 C        -3.1222825706       -6.7509019042        0.8443129054
 C        -0.5341966698       -9.6746218454        1.1466453147
 C        -2.9057086118       -9.6648151810        1.6806810593
 O        -2.2978542928       -7.8551546306        3.9820178910
 O        -0.7180050312       -6.9737275107        0.4547448677
 C        -2.9662737231       -5.3482764899        0.0977444524
 C        -4.2800202451       -4.9732060705       -0.4342334177
 C        -4.5256157949       -3.4004463060       -0.8053460422
 C        -3.1627379667       -2.6309219090       -1.0534040867
 C        -2.4783276678       -2.7366714668       -2.4732473620
 O        -5.2391148731       -5.7162228430       -0.6254445373
 O        -2.7893285467       -1.9780708057       -0.1420170107
 C        -5.4316734330       -3.3439055574       -2.1232379431
 C        -5.1977019826       -2.9467721946        0.5493186164
 C        -0.9564269964       -2.4127864499       -2.3886941744
 C        -0.7059259303       -1.0414408104       -1.8477041407
 C         0.5345479062       -0.7133561246       -1.0052262468
 C         1.3299157788        0.1306722758       -1.9800245198
 C         2.6743215340       -0.4242295612       -2.4024534484
 C         0.1108526981        0.2222806794        0.2651527096
 C         1.1147972755       -2.0526013631       -0.4609809506
 O        -1.5514785671       -0.1692142740       -2.1247750324
 O         0.9354155154        1.2899475258       -2.1909515463
 C         3.4061293761        0.6209646240       -3.3308700766
 C         2.9670375262        0.3386955240       -4.8020905040
 C         3.5764930684        1.2808174394       -5.9104955922
 C         2.4179015470        2.2366676009       -6.2780944173
 C         1.2766214561        1.6702513562       -7.0465810549
 O         2.3373486474       -0.6421484862       -4.9376241607
 O         2.4499748591        3.4299228626       -5.9493299554
 C         4.6740600248        2.1291666134       -5.3751933373
 C         4.0548781557        0.3999180932       -7.0616032481
 C        -0.0205602603        2.4805545066       -7.0026038963
 C        -0.7296858707        2.5975317190       -5.5935335598
 C        -2.2726170899        2.8141818641       -5.6071513524
 C        -2.6866650305        3.5278946286       -4.2303772473
 C        -2.3199017013        4.9976594755       -4.1196159022
 C        -2.6499914163        3.7900568585       -6.8005754049
 C        -2.9585586733        1.4591185512       -5.6591748070
 O        -0.1845641143        2.2665815924       -4.5326843613
 O        -3.2012817496        2.9137039233       -3.3548304427
 C        -2.2485968348        5.5820502920       -2.6650467455
 C        -0.9882588863        5.1562664532       -1.8857858047
 C        -1.0202015579        5.4643714477       -0.2532196095
 C        -0.9855012087        4.0412708577        0.4949581083
 C        -1.0809851074        3.8531949322        2.0603248483
 O         0.0096891146        4.7048493700       -2.3828182697
 O        -1.2548627271        3.0729207757       -0.2031969900
 C         0.1964298700        6.3657867248       -0.0032295603
 C        -2.3049333034        6.2988303706        0.1377079592
 C         0.2345367990        4.0160713530        2.9495481589
 C         1.5261926495        3.5166344294        2.1412527826
 C         2.7101979277        2.9128697532        3.0831932182
 C         2.1326628436        1.7070410498        3.8917248803
 C         2.3205830751        1.6272225900        5.4513898259
 C         3.8135508610        2.4816700996        2.1031360750
 C         3.1595948050        4.0379760174        3.9524832593
 O         1.5517767892        3.4983281591        0.9404556370
 O         1.4954392726        0.8714952168        3.3208604833
 C         1.9020321101        0.2472379118        5.8931590347
 C         2.1363400335        0.0632648387        7.3997123713
 C         0.8679606379       -0.5172780908        8.2169899711
 C         0.2300742535        0.8841553087        8.7008216954
 C         0.5794923087        1.4149975102       10.1276343914
 O         3.2400465256        0.3303630480        7.9201710208
 O        -0.5030564519        1.4516757010        7.9113750304
 C        -0.2173704980       -1.2689007247        7.2780743750
 C         1.5009468489       -1.4772875893        9.3577805847
 H         0.5151541043       -7.4584531401        2.6901464822
 H         0.1679787385       -7.6023888512        4.4435907527
 H         0.5155057333       -9.1243688270        3.5032500410
 H        -3.7021657922       -7.4887879853        0.2222871269
 H        -3.6258610674       -6.5139278207        1.7882454524
 H         0.3157112730       -9.0148125978        1.0417495440
 H        -0.8028591393       -9.9758636265        0.1306419814
 H        -0.3419111737      -10.4616857908        1.8352586572
 H        -3.4561687815       -9.5629041863        2.6336250062
 H        -3.6303854136       -9.6526005330        0.8624411098
 H        -2.5271014613      -10.6660794164        1.6449144129
 H        -2.7176001027       -4.5483235257        0.8655544441
 H        -2.2289905391       -5.3682845884       -0.7137302945
 H        -2.5830491330       -3.7204170266       -2.8616882185
 H        -2.8883256067       -2.0713209438       -3.2541694693
 H        -5.3548603876       -2.3223107119       -2.5397782130
 H        -6.4830427034       -3.5277626371       -1.9615014924
 H        -5.0708440174       -4.1121901552       -2.9773060825
 H        -4.3741668641       -2.7871341434        1.2471550212
 H        -5.8098328647       -2.0190645979        0.6072325405
 H        -5.8845751016       -3.7783503497        0.7995741999
 H        -0.6620447140       -2.4422655916       -3.4444111277
 H        -0.2713482913       -3.0779720265       -1.8818602215
 H         3.2037243801       -0.5987696146       -1.5053060928
 H         2.6739766699       -1.4006952857       -2.8906977391
 H        -0.9459394888        0.4954191268        0.2434650434
 H         0.7150196604        1.2159863578        0.3395080832
 H         0.2802141662       -0.2842573077        1.1762963340
 H         0.3747732791       -2.6403245639        0.0113073127
 H         1.6100844592       -2.7586684960       -1.1376790173
 H         1.9876028683       -1.7521629147        0.1954773963
 H         3.0650162036        1.6337427891       -2.9365715177
 H         4.4427746857        0.5028942069       -3.1963822187
 H         1.6723598690        1.4787040200       -8.0869480119
 H         1.1633135616        0.6823571285       -6.5744722016
 H         4.3606232608        2.8403398391       -4.5286089779
 H         5.1821955353        2.6905247720       -6.1761221956
 H         5.4265327625        1.4541374841       -4.9031328842
 H         3.7232688176       -0.6320366723       -6.9264356217
 H         3.6600155459        0.7385144985       -8.0487257356
 H         5.1543888821        0.3644001617       -6.9851861599
 H        -0.7583651834        1.9254043392       -7.5963886587
 H         0.1184530770        3.3525720763       -7.6081991763
 H        -1.3094999799        5.1595348163       -4.4619516332
 H        -2.9075730762        5.6945747326       -4.6968987362
 H        -2.5045928446        4.8323391020       -6.5407825705
 H        -3.6103448726        3.8568648375       -7.2109535553
 H        -1.8975792668        3.4367682325       -7.5141691161
 H        -4.0653842463        1.5692229808       -5.5930627044
 H        -2.6444646500        0.8602650782       -6.5074139379
 H        -2.6303170550        0.8539525915       -4.7672129745
 H        -2.1281447880        6.6190091296       -2.7431639477
 H        -3.1227753894        5.3628925575       -2.0833876602
 H        -1.8696331528        4.5421226122        2.3957926404
 H        -1.5267864364        2.8210295429        2.2089887688
 H         1.1386657382        5.9838293182       -0.4266139357
 H         0.4275363611        6.4348685922        1.0333330493
 H        -0.1161718439        7.3843296880       -0.3039348363
 H        -2.0475571460        6.6816379352        1.0863368178
 H        -2.5645547181        7.1271911318       -0.6389847441
 H        -3.1619769785        5.6916445702       -0.0007962173
 H         0.0582384524        3.5020731520        3.8317845952
 H         0.2890700188        5.1131950865        3.0791035207
 H         3.2149374498        2.0033165248        5.9232821794
 H         1.4799835405        2.2284737341        5.8322274115
 H         3.5923892290        1.4521832045        1.7899914415
 H         4.7359174861        2.3116941727        2.6827212216
 H         3.8277798644        3.1863409181        1.2118395789
 H         3.8800344457        3.5739567001        4.5737644323
 H         3.5394089207        4.8820193963        3.3838109210
 H         2.3100090817        4.4787217233        4.4809250492
 H         0.8989316002        0.0533566917        5.5020456986
 H         2.5115410379       -0.5684560987        5.4502902572
 H        -0.1326895763        2.1972760379       10.4755430629
 H         0.5508528642        0.6292831950       10.8702671653
 H         1.5617724349        1.9303358985       10.0664016017
 H        -0.8392569580       -1.8570111567        7.9222676593
 H         0.0887585976       -2.0617562206        6.6090975627
 H        -0.8453604209       -0.5794882492        6.7867181851
 H         0.8254675628       -1.6749726200       10.2081976092
 H         1.6541580685       -2.3959876619        8.8561674536
 H         2.3845232792       -1.0175959635        9.8267920899
 Na       -1.1702354193        2.1803921364       -2.2430617514
