155

 C         2.5397365426       -3.1572504376        2.9847824779
 C         2.6165580822       -2.0729345042        1.8179794137
 C         1.4334785665       -1.9640182622        0.8839522254
 C         0.6280518963       -0.7110672792        1.2255957880
 C        -0.9015501925       -0.8440698405        1.4391610150
 C         1.8920141928       -1.7053047088       -0.6024388530
 C         0.3907857059       -3.2129422412        0.8441186140
 O         3.6198096264       -1.4079414329        1.7083402608
 O         1.1404509842        0.3857609529        1.0183743335
 C        -1.5541320546        0.2382248719        2.2731687802
 C        -0.9098601407        0.0708213250        3.6824179427
 C        -1.3094577117        0.9374028767        4.8970484719
 C        -0.0754213714        1.9393751711        5.1701075928
 C         1.3076340462        1.4891771239        5.5443562726
 O         0.0414418612       -0.7183203854        3.8531887788
 O        -0.3450639320        3.0885331290        5.0619375005
 C        -2.5918447724        1.7063222452        4.7450660713
 C        -1.4818413211        0.0039517480        6.1481387946
 C         2.3260265785        2.6034881250        5.1948483617
 C         3.1089480238        2.3690742359        3.9362361331
 C         4.7321651633        2.1676404539        3.8862643165
 C         5.2673093991        2.2424130128        2.4347041498
 C         5.5797287068        3.6685949536        1.7703533675
 C         5.2520260584        3.3402507289        4.7120850765
 C         5.0515143104        0.8238212316        4.6168359622
 O         2.4453061821        2.3659917204        2.9057400716
 O         5.4534914263        1.2886969208        1.7444024612
 C         5.8606577309        3.3729369642        0.3425622386
 C         4.5928025285        3.4177968846       -0.6612775048
 C         4.8491782447        3.1892433791       -2.2737590681
 C         3.9249104576        1.9158530103       -2.5403177051
 C         3.6762839661        1.4846083568       -4.0960294161
 O         3.4887950051        3.6513507822       -0.2347751133
 O         3.4822800613        1.1957983140       -1.6757578405
 C         4.2230536299        4.4529793110       -2.9120333060
 C         6.2602272266        3.1123232097       -2.6953054787
 C         2.2501684983        1.6408256742       -4.5675233256
 C         1.9687837606        0.5711766767       -5.6483520909
 C         1.2902788819       -0.7909302263       -5.2398110997
 C        -0.2011240345       -0.4605680975       -4.9198715785
 C        -1.0363933427       -1.5385922132       -4.3179591736
 C         1.3973057716       -1.8793850548       -6.4131364176
 C         1.8615327366       -1.3548229781       -3.9749430827
 O         2.2669495495        0.7581770562       -6.8242006224
 O        -0.6044822383        0.6811043155       -5.1494810948
 C        -2.4583342811       -1.1220276375       -3.9667350307
 C        -2.8885790561        0.3858374340       -3.5076519155
 C        -4.1438444255        1.0281561152       -4.2936869946
 C        -5.2443247048        1.3158285449       -3.2185704203
 C        -5.2832122419        2.5078410105       -2.3301566424
 O        -2.3494769191        0.9179806674       -2.5690078533
 O        -6.0986123692        0.4730295282       -3.0652595247
 C        -3.5292072839        2.3638549351       -4.8645383746
 C        -4.6079235276        0.1577777123       -5.5598750658
 C        -6.3614882383        2.4284352442       -1.1122375772
 C        -5.8516393559        1.4819206475       -0.0025594264
 C        -6.8746753314        0.5881980791        0.7931652526
 C        -7.2531338538       -0.6553912119       -0.0156830757
 C        -6.0020271105       -1.5443861321       -0.5806086640
 C        -6.2494409781        0.0507779326        2.0614058326
 C        -8.1826125637        1.4140148261        1.0355438992
 O        -4.6622208112        1.3416495924        0.1098499580
 O        -8.3829226663       -1.0588266868       -0.0451185113
 C        -6.3069423551       -3.0266576002       -0.5256577371
 C        -4.9168576845       -3.7455766691       -0.5548076488
 C        -4.7329753752       -5.2870322179       -0.2435148562
 C        -4.5501738451       -5.4633155143        1.3444330914
 C        -3.1647972529       -5.1519504885        2.0515454095
 O        -4.0041321595       -3.0025156566       -0.8869838991
 O        -5.5057141782       -5.6967521227        2.0174887997
 C        -5.9248992520       -6.2576824523       -0.6042661148
 C        -3.4614667090       -5.7997421250       -0.9351540955
 H         2.2350877092       -2.9362488735        3.9841443517
 H         1.7847352689       -3.8557418668        2.6610762192
 H         3.5168126023       -3.5664055753        3.0326929818
 H        -1.3337632014       -0.8561496596        0.4374202850
 H        -1.4410728723       -1.7418437686        1.8478084941
 H         2.4484004879       -2.5895625026       -1.0240826212
 H         2.5612523760       -0.8780131517       -0.6143799770
 H         1.0166135485       -1.6680139589       -1.1390564917
 H        -0.0920390200       -3.3460508092        1.8393782771
 H        -0.4183835044       -2.9943617790        0.1614010301
 H         0.9149264070       -4.1457767533        0.5872791613
 H        -1.3660463322        1.2227143988        1.9329916342
 H        -2.6224330347       -0.0584262585        2.2740848363
 H         1.1976082210        1.4240514408        6.6272863678
 H         1.6323077910        0.5796530709        5.0411414268
 H        -2.6373334409        2.3174018623        3.8969987021
 H        -2.8130611854        2.4114227338        5.5608334140
 H        -3.4352588788        1.0096477902        4.6308939476
 H        -1.5103126740        0.4877772668        7.1386913757
 H        -2.4317579413       -0.5030507784        6.1376188469
 H        -0.6568439346       -0.6734052962        6.1263788504
 H         2.9112053564        2.7228407117        6.1471358951
 H         1.6938341004        3.5771603515        5.1813345717
 H         4.7441936620        4.3693262350        1.9290096423
 H         6.4160137627        4.3600104165        2.2132864201
 H         4.7564027076        4.2336855785        4.3607630991
 H         6.2929205720        3.6723829118        4.7792501777
 H         4.9479999433        3.2333481010        5.7238714827
 H         4.6674113474        0.9675637324        5.6117665200
 H         4.6435809076       -0.0414757060        4.0195858729
 H         6.1096310859        0.7089392471        4.7529327745
 H         6.5700448886        4.0365584186       -0.0869767478
 H         6.2546678526        2.3677138092        0.1248926680
 H         4.4135540743        1.8822260379       -4.7926946864
 H         3.9787304811        0.4011102226       -4.0695985384
 H         3.1811704774        4.5799952848       -2.6245024933
 H         4.3214804213        4.5691076144       -3.9760484230
 H         4.7462643147        5.3430591814       -2.5142631517
 H         6.3775080851        3.0219506014       -3.7531276883
 H         6.7935213504        3.9785619034       -2.3500998417
 H         6.7460440014        2.1423443011       -2.4558947681
 H         2.2886053423        2.6210222943       -5.0580083604
 H         1.4765646214        1.7723655872       -3.7509285661
 H        -1.1231403113       -2.3309850939       -5.0577101404
 H        -0.4309115909       -1.8850451655       -3.4868248514
 H         0.4537905145       -1.8620655030       -6.9599255584
 H         1.4494054868       -2.9224757999       -6.0444126021
 H         2.2476388283       -1.6543210637       -7.0723066528
 H         2.9570004699       -1.2728900109       -4.0355228297
 H         1.4941033727       -0.8937026624       -3.0003571023
 H         1.7986993181       -2.4449179515       -3.8652194008
 H        -3.0632214078       -1.4641559077       -4.8701055554
 H        -2.9087529354       -1.7680471542       -3.2016968661
 H        -4.1900908734        2.5991494529       -1.9481793303
 H        -5.4121524732        3.3946116468       -3.0120611942
 H        -2.8377605789        2.2215034930       -5.6846078805
 H        -2.9217654369        2.9406552388       -4.0864442681
 H        -4.2414696976        3.0223075392       -5.3247503817
 H        -5.0148762196       -0.7944005997       -5.2670248284
 H        -5.3471191382        0.6037687795       -6.2460143433
 H        -3.6439094544        0.0421054124       -6.1870936777
 H        -7.3898039153        2.2824999767       -1.5733587716
 H        -6.2565206903        3.4144731478       -0.6137245770
 H        -5.8456731340       -1.2755337757       -1.6521022895
 H        -5.0489615378       -1.2506715234        0.0471992556
 H        -6.7537977751       -0.8522664657        2.5131396768
 H        -6.3113497885        0.7199610156        2.8968994533
 H        -5.1676848762       -0.2440514023        1.8673807461
 H        -8.9613436636        0.8716200186        1.5430827723
 H        -7.8544328747        2.3824759214        1.4936250738
 H        -8.6549302515        1.6137524880        0.0907011284
 H        -6.7653119831       -3.4326900292        0.3737069690
 H        -7.0361751907       -3.3413140264       -1.3800145575
 H        -2.6850869806       -5.8253359178        2.7646280141
 H        -2.3054710892       -4.8935080756        1.4346231772
 H        -3.3175792336       -4.2682650354        2.6905945416
 H        -6.8585053430       -5.9228047284       -0.2108015037
 H        -5.8795428960       -7.2749146205       -0.3263154415
 H        -6.0110764080       -6.3323990309       -1.6735263134
 H        -3.3727279318       -6.8548913492       -0.7757666904
 H        -3.6313420145       -5.6937583825       -1.9763678786
 H        -2.6374634099       -5.2836780946       -0.6466358036
 Na        3.2966827296        0.9828386346        0.7039214962
