155

 C         0.0874745472       -7.8160909188        3.5471753662
 C        -1.2901021151       -8.3356995040        3.1337534642
 C        -1.6350702077       -8.7653465968        1.5972677908
 C        -1.7512069567       -7.4122171803        0.8867031870
 C        -3.0088206769       -6.5823601707        0.9521377290
 C        -0.5092164182       -9.6862124484        1.0419728941
 C        -3.0247105933       -9.4784471923        1.7192622877
 O        -2.1836423977       -8.4553006053        3.9272159223
 O        -0.7552767815       -7.1024389480        0.2154889423
 C        -2.9096203941       -5.3033074885        0.2175240039
 C        -4.3248446426       -4.7558613908       -0.3778698207
 C        -4.6974725600       -3.2142328736       -0.6236937519
 C        -3.3847991784       -2.4856838997       -0.9078060484
 C        -2.8516909990       -2.5496871871       -2.3078743040
 O        -5.0818147149       -5.6558471430       -0.6124532826
 O        -2.6270200324       -1.9487771338       -0.0551983946
 C        -5.6634538992       -3.2527670024       -1.8733558242
 C        -5.5181641568       -2.4916371509        0.5036211481
 C        -1.3799772722       -2.2357053469       -2.4683494881
 C        -0.9796122910       -0.8553728070       -1.8070058212
 C         0.4425219239       -0.5985593078       -0.9650482349
 C         1.4385757208        0.1654085442       -1.9823078406
 C         2.8025878263       -0.4974398264       -2.3144146363
 C        -0.0463296680        0.1375309367        0.3000691570
 C         1.1419768267       -1.8993580406       -0.6476914192
 O        -1.7489722605        0.0287769416       -2.0322712666
 O         1.1882230118        1.3206176618       -2.3289016102
 C         3.6243440910        0.3282446260       -3.3240029584
 C         3.1159473976        0.2617305793       -4.7033010972
 C         3.5697963254        1.3425742647       -5.7420234611
 C         2.3727209533        2.1606301229       -6.2301001166
 C         1.1282255987        1.3576905715       -6.8459863285
 O         2.4050976500       -0.6931047196       -5.1639741723
 O         2.3452898117        3.3337452509       -6.2476923221
 C         4.7177411768        2.2923531191       -5.2946551104
 C         4.1023727057        0.6091143759       -7.0493221701
 C        -0.0974557990        2.1965131323       -6.8301524137
 C        -0.8404437130        2.3218626223       -5.5276132269
 C        -2.4610612661        2.7293851622       -5.6790497175
 C        -2.7411162921        3.5839327450       -4.3403551040
 C        -2.2948962485        5.0055637647       -4.1666875883
 C        -2.6827800690        3.6168953598       -6.9272913072
 C        -3.2996508514        1.4542739458       -5.7703448727
 O        -0.3546579202        2.1427537457       -4.4482207942
 O        -3.3705656394        2.9811097781       -3.4630997960
 C        -2.2999671579        5.5962898027       -2.7051061032
 C        -0.9701636845        5.2489282769       -1.8510273806
 C        -1.0224020936        5.5722830490       -0.2393026365
 C        -1.0447887621        4.0721258076        0.4401758883
 C        -1.0725350198        3.9458395266        2.0139131715
 O        -0.0207999084        4.6496103744       -2.2801644111
 O        -1.4241181744        3.1416343092       -0.2040164757
 C         0.3734429561        6.2690682381        0.0614958378
 C        -2.2671983442        6.3089641693        0.3240206981
 C         0.3474179704        4.1350018831        2.6687487996
 C         1.5492303846        3.4466963311        2.0255889475
 C         2.7108617316        2.9037236257        3.0466217859
 C         2.3057729950        1.6299346887        3.7728280992
 C         2.6873712044        1.4840758047        5.2235807285
 C         3.9094434497        2.5282096785        2.0839535716
 C         3.1570705841        4.0324447809        3.9256202237
 O         1.6683104823        3.3249456755        0.8369779602
 O         1.6069224658        0.7498314821        3.2630704781
 C         2.0131671234        0.2336957800        5.9118500652
 C         2.2756037686       -0.0305999233        7.3897242685
 C         1.0086493356       -0.5703492668        8.3205783720
 C         0.4416019044        0.9149454773        8.7399907189
 C         0.5572043857        1.3932226120       10.2516699855
 O         3.3482179571        0.0714782286        7.8528118713
 O        -0.2485801120        1.4790905970        7.9360837930
 C        -0.0014278520       -1.3035571268        7.5168627732
 C         1.6254168606       -1.4356555559        9.4885280520
 H         0.6686350566       -7.6128366284        2.6644608588
 H        -0.1430672575       -6.9055274885        4.1232799271
 H         0.5071547747       -8.5728180220        4.1784466624
 H        -3.7253901770       -7.2630066680        0.4920186312
 H        -3.2428443825       -6.3880487445        2.0139791712
 H         0.0472734182       -9.2988514170        0.1882423779
 H        -0.9511958755      -10.6485768322        0.8339989290
 H         0.0894483955       -9.8601582159        1.9510170674
 H        -3.7217822497       -9.0132673469        2.3883565232
 H        -3.5198859478       -9.4596461309        0.7477458939
 H        -2.8393932285      -10.5306191744        2.0276837899
 H        -2.2524594827       -4.6466258014        0.7597317912
 H        -2.3703974273       -5.7195314350       -0.7093814381
 H        -2.9368642738       -3.6395866554       -2.6518817354
 H        -3.5628429125       -1.9652834353       -2.9090965957
 H        -5.7915763082       -2.2458519351       -2.3214670976
 H        -6.6663695041       -3.6506916491       -1.5399010085
 H        -5.4170366981       -3.9626282945       -2.5667894104
 H        -4.9152331460       -2.2356253143        1.3600844033
 H        -5.6502626487       -1.4987226789        0.0769463596
 H        -6.4882454154       -2.9366917811        0.7122439494
 H        -0.9751249028       -2.2910754480       -3.5092515245
 H        -0.8155161386       -3.0620151031       -1.9620376434
 H         3.4357062274       -0.6041093110       -1.3826890590
 H         2.7193666852       -1.5230238188       -2.6542087439
 H        -1.1233637777        0.0806740366        0.4947738702
 H         0.1137072113        1.1372410310        0.2312433150
 H         0.5922702823       -0.2584169529        1.1358393640
 H         0.4812268922       -2.5090430788        0.0256573941
 H         1.2876695829       -2.5822153835       -1.4684275297
 H         2.0926773242       -1.7860485966       -0.2243827624
 H         3.5737399178        1.3317968741       -3.0164126519
 H         4.6984393779       -0.0429408975       -3.2573610081
 H         1.4269569443        1.2692311424       -7.8948860192
 H         0.9928521378        0.3284066648       -6.4522640197
 H         4.4525382898        2.6883109981       -4.3443980766
 H         4.8162703889        3.1814562636       -5.9139615081
 H         5.6904288073        1.8063078416       -5.1338732131
 H         4.0327737915       -0.4692601207       -6.9121105081
 H         3.6442901749        0.9239528928       -7.9590960979
 H         5.1576289011        0.8043692646       -7.1499763641
 H        -0.8297185689        2.0425243073       -7.6741405481
 H         0.2631832002        3.2310762440       -7.1116230850
 H        -1.3535893121        5.2983994804       -4.6834749827
 H        -3.0621385305        5.6511693920       -4.6668078591
 H        -1.9448287206        4.3830699265       -7.2073625982
 H        -3.3918316412        4.4642943225       -6.5250201992
 H        -3.1389815983        3.0029865520       -7.6582898528
 H        -4.2796512997        1.5632924871       -5.3358025412
 H        -3.3833968100        1.2222643203       -6.8300946184
 H        -2.8521976222        0.6100726935       -5.3357791502
 H        -2.5067064570        6.7140807635       -2.6930152893
 H        -3.1160248967        5.0822513676       -2.1698541015
 H        -1.6772943054        4.7854134711        2.4233500165
 H        -1.5223498250        3.0091469241        2.2554715320
 H         1.1394424313        5.4928120786        0.0739172798
 H         0.4223832397        6.6540434988        1.1106689141
 H         0.5194285275        7.0999117720       -0.5525743159
 H        -1.9807470101        6.5518981865        1.3593361941
 H        -2.3661680975        7.2018078743       -0.1841120940
 H        -3.1369379438        5.6486408832        0.0896853442
 H         0.2400585211        3.7134724719        3.7266211728
 H         0.4600012041        5.2037641293        2.6686401797
 H         3.7895940417        1.4914169810        5.3198279735
 H         2.4464341847        2.4277657283        5.7032783885
 H         3.6827804878        1.9331312379        1.2101071265
 H         4.4847214720        1.8456591249        2.6813830382
 H         4.4401418575        3.4387066518        1.9200369414
 H         4.0818670143        3.7026484211        4.4418204947
 H         3.2685460052        4.9439305921        3.3728237186
 H         2.3041880039        4.2449530405        4.5527261018
 H         0.9621744746        0.4500135890        5.8444765306
 H         2.1957673482       -0.6705485630        5.3726779638
 H        -0.3510667427        1.8089786525       10.6043912288
 H         0.6784196655        0.4572453655       10.7908296157
 H         1.3257699432        2.0979782074       10.4978161733
 H        -0.7777213988       -1.8633083437        8.0749471556
 H         0.3925631465       -2.1888167622        7.0078733371
 H        -0.4401387560       -0.5964506193        6.7622052555
 H         0.8027975634       -1.5107129749       10.1983751572
 H         1.9248200365       -2.4584984344        9.1568441046
 H         2.3641901818       -0.8414664570       10.0276395223
 Na       -1.1136557034        2.1649266211       -2.2590300771
