155

 C         2.5929088465       -2.8315201691        3.5086888455
 C         2.4864756228       -1.9830061739        2.2177331978
 C         1.4572026014       -2.1019840782        1.0912291441
 C         0.3411618111       -1.0114842277        1.2194206475
 C        -1.1173473804       -1.2866727555        1.2872121478
 C         2.1186886922       -1.7909368352       -0.3266097398
 C         0.8136000938       -3.5624876081        0.9465974163
 O         3.2940754025       -1.0803195033        2.0150975110
 O         0.7149775237        0.1364346842        1.1576555632
 C        -1.8060524543       -0.1529466009        2.1598603565
 C        -1.1192393648       -0.0779400430        3.6123173463
 C        -1.7740570861        0.8258598140        4.8021759531
 C        -0.7093137341        1.8014643111        5.3802825946
 C         0.6005687119        1.2155891219        6.1271648773
 O        -0.2790718927       -0.9385390102        3.8162947229
 O        -0.8791753418        3.0025194910        5.1905390822
 C        -3.0367018295        1.6918148429        4.4305887712
 C        -2.1867734870       -0.2056933746        5.8503993584
 C         1.7912289826        2.1527460875        6.1964475344
 C         2.4430239883        2.2052461395        4.8117024456
 C         3.7648048450        3.2810347503        4.4298394389
 C         4.0157493716        3.4338633889        2.8772095933
 C         3.8940918995        4.6266452355        2.0495532148
 C         3.5550189297        4.5950517611        5.2343390005
 C         4.9861781283        2.5294259137        5.0126970345
 O         2.1154900152        1.4053276568        3.9742222948
 O         4.4564920074        2.4570030199        2.2920661115
 C         4.0287412620        4.3160390611        0.4919733560
 C         2.7022009304        3.6540633619        0.0493825620
 C         2.6192703284        3.4361868437       -1.5147431900
 C         3.5392636004        2.1692556666       -1.7207647700
 C         3.9856151702        1.7082322065       -3.1557088897
 O         1.8344451754        3.2552123257        0.7974937317
 O         3.7972774940        1.4987119614       -0.7154050187
 C         1.1864452804        3.1091787328       -1.9551643586
 C         3.1044489614        4.5550168234       -2.4134889182
 C         2.8082235923        1.6821780980       -4.0857719918
 C         2.9052634125        0.7052060878       -5.2709257290
 C         1.6436922217       -0.0095472681       -5.8781038445
 C         0.3272096632        0.8927510042       -5.9484606907
 C        -0.9839005534        0.2012661973       -6.1561649031
 C         2.0432642984       -0.6838132829       -7.3231428275
 C         1.3871745906       -1.2561628125       -4.8568160726
 O         4.0056666284        0.3361378547       -5.6518294156
 O         0.4991590997        2.0604531303       -5.8915339816
 C        -1.7346470693        0.0741846412       -4.8412000695
 C        -1.6101852836        1.3130718606       -3.8701009061
 C        -2.5331004804        2.5535135024       -3.9336042212
 C        -4.0144162392        1.9698570413       -3.6783138101
 C        -4.7514435524        2.4738543619       -2.4431865660
 O        -0.5756859910        1.3707214620       -3.2145930108
 O        -4.4596565071        1.0641087641       -4.3168182894
 C        -2.2176630207        3.7437467429       -3.0046785758
 C        -2.3914929358        2.9952892995       -5.4671784067
 C        -6.0545405384        1.6442179302       -2.2864058992
 C        -5.7422750065        0.1582705651       -1.7459766444
 C        -6.7192931392       -1.1349397140       -1.9956929855
 C        -5.7108432515       -2.3733035476       -1.8059886281
 C        -5.3712020195       -2.8062055682       -0.4142944670
 C        -7.8241834346       -0.9855221870       -0.8842598707
 C        -7.3173166460       -1.0867088785       -3.4012765381
 O        -4.7639963053        0.0567034016       -1.0823988029
 O        -5.2871624675       -2.9353418102       -2.8276265774
 C        -4.8270454175       -4.1884882872       -0.4654069899
 C        -3.7408954059       -4.6865233580        0.5441522975
 C        -3.7025811763       -6.2660174913        1.0844916102
 C        -5.1724560026       -6.1956571139        1.8060632843
 C        -5.3872510125       -6.0481758015        3.3144048006
 O        -2.9623599609       -3.9427768073        1.0216970055
 O        -6.1393578162       -6.1914287600        1.0740246983
 C        -3.6953109051       -7.1704075086       -0.1122319602
 C        -2.5057519193       -6.3540385997        2.0313175608
 H         3.3716252860       -2.4528104607        4.2230422312
 H         1.6094677234       -2.7843764234        3.9783274535
 H         2.6708293812       -3.9499861328        3.2919258428
 H        -1.3873205769       -1.1050878248        0.2179757733
 H        -1.3459210893       -2.2670176127        1.4698141282
 H         2.8150138370       -2.5299880946       -0.6350618145
 H         2.6706674588       -0.8393763385       -0.2755558486
 H         1.3493740681       -1.8468386724       -1.1313981679
 H         0.4787136863       -3.9324241046        1.8886501709
 H        -0.1100709068       -3.5662594903        0.3013745290
 H         1.4229365016       -4.2496370935        0.3648843173
 H        -1.7008209909        0.7506552086        1.5643041109
 H        -2.7992135688       -0.3947995941        2.2585490521
 H         0.2466448566        1.0372335716        7.1681979811
 H         0.8875936627        0.3104636701        5.5990059389
 H        -2.8614039756        2.5703950702        3.6975303588
 H        -3.3401685387        2.0335935004        5.4134426018
 H        -3.8313524163        1.0320534596        4.0448027305
 H        -2.6583822701        0.2835961270        6.7450983215
 H        -2.7290297624       -0.9860953302        5.3866187546
 H        -1.2715231965       -0.6253586326        6.3406031899
 H         2.3824484003        1.9731994313        7.0830011700
 H         1.5378634237        3.1423900073        6.5486553262
 H         3.0746020444        5.2841857016        2.2211715703
 H         4.8609651455        5.1568285903        2.3686723033
 H         2.6768589386        5.0306138077        4.8016610553
 H         4.4058206522        5.2301236322        5.2975131292
 H         3.4855387348        4.1809036215        6.3113497200
 H         4.7695738062        2.3690974460        6.0908245361
 H         5.3624651023        1.6350085141        4.5233732306
 H         5.8834067353        3.1758396375        5.0460757982
 H         4.1704615646        5.3205083898       -0.0899464852
 H         4.9563861856        3.6600957226        0.4335673281
 H         4.7334314670        2.3192172169       -3.6040130903
 H         4.4643180284        0.7361666870       -3.0376549987
 H         0.8271523651        2.1235385262       -1.7353562256
 H         1.1709208202        3.2802541247       -3.0204862073
 H         0.4701989260        3.8322982924       -1.5373671827
 H         3.5084214213        4.0901428672       -3.3411786405
 H         2.3109601739        5.2515301427       -2.7180182899
 H         3.9020622791        5.1473076430       -2.0410356744
 H         2.4266022564        2.6657496252       -4.3803835284
 H         2.0038876983        1.2233181363       -3.4106276374
 H        -1.5383775531        0.7658795036       -6.9034645361
 H        -0.8715949565       -0.8015305958       -6.4464978591
 H         1.5411209924       -1.6559605442       -7.3636392119
 H         3.1160793574       -0.8199794903       -7.3700817224
 H         1.7508795153       -0.0272789390       -8.1546782697
 H         2.2784265602       -1.8402296723       -4.9964429948
 H         1.2751394185       -0.8669208188       -3.8521822068
 H         0.4602287326       -1.8014207509       -5.1480883338
 H        -2.7936359354       -0.1688500207       -5.0746733414
 H        -1.2823899959       -0.6838670898       -4.1880485955
 H        -4.0506425019        2.4042729105       -1.5343379331
 H        -4.8738432074        3.6074639255       -2.4064990872
 H        -1.2192079975        4.1023475754       -3.1967397590
 H        -2.3729214654        3.4006799401       -2.0176906779
 H        -2.8881904020        4.6060537512       -3.3102919783
 H        -2.7019800744        2.1804097321       -6.0572681477
 H        -2.9617974203        3.9148321466       -5.6308471440
 H        -1.3649743402        3.2069873338       -5.7963187333
 H        -6.5010985977        1.3922854864       -3.3213884150
 H        -6.9150387094        2.0959552205       -1.7205603530
 H        -4.5555836212       -2.1000307454       -0.0039297176
 H        -6.2263104390       -2.7369843677        0.2572000081
 H        -8.2865652103       -1.9139459026       -0.7259211083
 H        -8.5146716369       -0.1878805543       -1.2392997159
 H        -7.4611319558       -0.6257830880        0.0315401814
 H        -7.9312107494       -1.9573275181       -3.5963999269
 H        -7.9350340901       -0.2287997227       -3.6298041337
 H        -6.4831090577       -1.2285226780       -4.1066916695
 H        -5.8031492115       -4.7957878542       -0.4305428860
 H        -4.3872519492       -4.3582443326       -1.4035492387
 H        -4.5915380134       -6.5520429863        3.9332607550
 H        -5.2889163245       -4.9965277826        3.4928850080
 H        -6.3111623308       -6.4470809896        3.5983192215
 H        -2.6453983061       -7.3381422569       -0.4280331716
 H        -4.2513583660       -6.8562659044       -0.9957243002
 H        -4.0874016128       -8.1185060360        0.2025717920
 H        -2.8200787695       -7.0058995908        2.8270543869
 H        -1.6056992735       -6.8233955395        1.5795867384
 H        -2.1431652555       -5.3654184427        2.4469650326
 Na        2.8576340745        1.0727664277        1.5258911778
