155

 C         2.7753314766       -2.9000272873        3.1342710385
 C         2.6777626729       -1.7633682970        2.1117158521
 C         1.4957799271       -1.9901295856        0.9208300960
 C         0.3802862900       -0.9515058672        1.2987401434
 C        -1.1763296687       -1.3663186782        1.6010463430
 C         2.0797431893       -1.8168252525       -0.4410296568
 C         0.9763810011       -3.3918106497        1.1686015114
 O         3.4222491628       -0.8133747377        2.1057613049
 O         0.5625010714        0.2684939254        1.1395668028
 C        -1.9017929892       -0.3055879971        2.3315476690
 C        -1.2980161638       -0.0598196415        3.6174089996
 C        -1.8442125289        0.8424651349        4.8779163484
 C        -0.7130327344        1.8000216719        5.3623348935
 C         0.5499005833        1.1855806813        6.1838930301
 O        -0.2967792322       -0.7094887314        3.9049977346
 O        -0.8758102434        2.9606608731        5.1162158234
 C        -3.1026902789        1.6469894440        4.4800863926
 C        -2.1854933417       -0.2223572972        5.9168852747
 C         1.6454380325        2.3202619530        5.9514445462
 C         2.3675287119        2.2958170003        4.5700343179
 C         3.6896124314        3.2497499038        4.5438695628
 C         3.9872037647        3.2759731436        3.0372202210
 C         3.8526929332        4.5591870514        2.2837036622
 C         3.5603544322        4.5811926829        5.2371526411
 C         4.6878973373        2.3324561778        5.1929460376
 O         2.0381320637        1.5278314884        3.7035980922
 O         4.2655817341        2.2467747899        2.4656292694
 C         4.0176548856        4.3452064023        0.7729755021
 C         2.7704047074        3.7899651486        0.1274504042
 C         2.5803678708        3.4953320294       -1.3754168274
 C         3.4255917499        2.1541382316       -1.8029437542
 C         3.9544121508        1.9152974253       -3.2887240760
 O         1.8231277302        3.4069768268        0.8098106158
 O         3.8152783388        1.4432371660       -0.9304054663
 C         1.0755652817        3.2635846105       -1.6067403700
 C         3.0105528413        4.7398063173       -2.2558695158
 C         2.7774895228        1.6860042752       -4.3086396457
 C         3.1936179371        0.6695657424       -5.4041159578
 C         1.8246344200       -0.0914846518       -5.8491194298
 C         0.6092612703        0.8814530848       -5.9503426919
 C        -0.8248901167        0.3431528663       -6.1799619757
 C         1.9569135314       -0.7595019852       -7.2158102792
 C         1.4801534449       -1.1250657227       -4.7371984902
 O         4.3027523969        0.3049180488       -5.6706580964
 O         0.6921612969        2.1038940047       -6.1651390578
 C        -1.6373789631        0.1641993109       -4.8414502354
 C        -1.5004956236        1.3234845494       -3.8876679494
 C        -2.4862224602        2.5412926446       -3.9708865079
 C        -4.0431318702        1.9566801766       -3.8526640058
 C        -4.8869224994        2.3659534810       -2.6030932391
 O        -0.6033761263        1.3543957876       -3.0641855700
 O        -4.5605210225        1.3689065777       -4.8210238649
 C        -2.0775327698        3.5088171925       -2.8011415087
 C        -2.5626621792        3.2519049344       -5.3395175809
 C        -6.0540379685        1.5068851968       -2.3385823444
 C        -5.5886036893        0.1168352607       -1.7254048003
 C        -6.4619601021       -1.2041777149       -2.0022586874
 C        -5.6096921402       -2.5018601444       -1.9091509990
 C        -4.9890350074       -2.7964391628       -0.5385035203
 C        -7.5894256965       -1.1078511969       -0.9243794463
 C        -7.1823317372       -1.1078719973       -3.4994170101
 O        -4.4971009799       -0.0152302226       -1.1574734685
 O        -5.3309775276       -3.0988463735       -2.9479778855
 C        -4.7919367441       -4.3623448886       -0.4763719537
 C        -3.8797702360       -4.6814411222        0.6502300858
 C        -3.9020032937       -6.1387986393        1.1976048308
 C        -5.3628899394       -6.4088148528        1.7371739991
 C        -5.5560364945       -6.1064155215        3.2315845127
 O        -3.0178009452       -3.8817437957        1.0735766379
 O        -6.1729442284       -6.8804303578        0.9666977196
 C        -3.5699755158       -7.2392222065        0.1219968598
 C        -2.8535490145       -6.3408029562        2.3251168717
 H         3.4960448804       -2.6441807453        3.8865612475
 H         1.8520622452       -3.2777608667        3.5357630597
 H         3.1907448570       -3.7051073063        2.6350573830
 H        -1.5706530742       -1.6615522738        0.6204670661
 H        -1.2272996205       -2.3147607309        2.2825243507
 H         2.7253699764       -2.6539485935       -0.8143847794
 H         2.6496945852       -0.9010591376       -0.3544756057
 H         1.3397103790       -1.7339693238       -1.2324195344
 H         0.3121493084       -3.3923598448        2.0239588465
 H         0.4600463304       -3.7856405881        0.3492097684
 H         1.8252022311       -4.1112169762        1.1305960939
 H        -1.8539794817        0.6642363595        1.7659919361
 H        -3.0170988837       -0.6600566966        2.4116106169
 H         0.3047926362        1.1773524946        7.2513340374
 H         0.7375180277        0.1791905099        5.7199189060
 H        -3.0101536393        1.9317391753        3.4837273606
 H        -3.2303058326        2.4709891445        5.1864387283
 H        -3.9921511554        1.0225627618        4.4351972547
 H        -2.0986069344        0.1998459310        6.8586272771
 H        -3.1596695195       -0.7309703146        5.6629049707
 H        -1.4659407505       -1.0194082329        5.9620129807
 H         2.2866582574        2.5232899280        6.8206756917
 H         1.1063546424        3.2537248575        6.1823644796
 H         2.8083079456        4.9784991869        2.3749728298
 H         4.5958067103        5.2625528408        2.5450015144
 H         2.7771675394        5.1078645019        4.6644553274
 H         4.5347088327        5.0864394743        5.3541554369
 H         3.3049608751        4.3822753501        6.2144442258
 H         4.4547735598        2.1092446425        6.2089637459
 H         4.6111559572        1.4331010001        4.6383568220
 H         5.7351571687        2.5511267161        5.1489801018
 H         4.3221494460        5.2569451716        0.4451908303
 H         4.7287110929        3.5738040971        0.6095482052
 H         4.6918518672        2.6892051965       -3.6506464391
 H         4.5039280069        0.9565883715       -3.2605025056
 H         0.7612498241        2.3839873557       -1.0015511866
 H         0.9778303700        2.9993775860       -2.6533596508
 H         0.3984828310        4.0723987490       -1.3534263648
 H         2.8689808110        4.4710186580       -3.3231821842
 H         2.3362985910        5.6005891302       -2.1819477323
 H         4.0451978693        5.1245957238       -2.0358535648
 H         2.4248975677        2.6156242153       -4.7889736329
 H         1.9699614756        1.2540621907       -3.7539567235
 H        -1.2801797153        1.0336340455       -6.9087382803
 H        -0.8240856736       -0.7572946421       -6.4551750297
 H         1.1007328841       -1.3358082906       -7.5212052163
 H         2.8834487847       -1.3217611256       -7.2067331284
 H         2.1968545261        0.0723718752       -7.8598558969
 H         2.3596661869       -1.6740743971       -4.4565303443
 H         1.1036458285       -0.5090582698       -3.9153624058
 H         0.7181996226       -1.7226561486       -5.1251143290
 H        -2.6774067219        0.0432199038       -5.1102342875
 H        -1.3057432362       -0.6818660772       -4.2383965137
 H        -4.3596231390        2.5628659005       -1.7330641583
 H        -5.1760480957        3.3594375371       -2.8160372554
 H        -1.5246700926        4.2757934770       -3.3528046983
 H        -1.3925622511        3.0162019292       -2.1066376284
 H        -2.9113730786        3.9605557270       -2.3355539696
 H        -3.2109982032        2.8037538454       -6.1156937071
 H        -2.6757184593        4.3134805888       -5.0655214409
 H        -1.5745041463        3.2311329582       -5.8489801685
 H        -6.6638554128        1.3013988824       -3.1423096070
 H        -6.6945770396        1.9299725982       -1.5994797697
 H        -4.0163317271       -2.5096689655       -0.3692974575
 H        -5.6052037771       -2.4105180992        0.2749206467
 H        -8.1851071925       -1.9955274456       -1.0561852325
 H        -8.1071840798       -0.1836849219       -1.0228850819
 H        -7.2708785405       -1.1601160725        0.1311101788
 H        -7.6961491970       -2.0378813924       -3.7676202354
 H        -8.0237852240       -0.3860342548       -3.3633109156
 H        -6.5993966535       -0.7852594134       -4.3482563346
 H        -5.6820075673       -4.8193101752       -0.3325124425
 H        -4.2805428339       -4.7795528311       -1.3882738043
 H        -4.8531127655       -6.5868728750        3.8732851328
 H        -5.3722016798       -5.0278347211        3.4480392082
 H        -6.5622876800       -6.5510399543        3.4466922773
 H        -3.0940747837       -6.8859478746       -0.7910089152
 H        -4.4791762774       -7.6867021487       -0.2794628880
 H        -3.0110130018       -8.0238773797        0.6632926805
 H        -2.7043655463       -7.4469295869        2.4370755509
 H        -1.9341396889       -5.9157409303        1.9519123849
 H        -2.9628125933       -5.9101325286        3.3065180662
 Na        2.5840898431        1.1503349884        1.4337297571
