155

 C         3.2937564254       -2.9075209917        2.6457193374
 C         2.6184146047       -1.7571544403        1.9149086411
 C         1.3746011834       -2.0917432718        0.8336300963
 C         0.1640410499       -1.1007582844        1.3717473292
 C        -1.0974734872       -1.7279634960        1.9181208489
 C         1.7803518504       -1.7123240298       -0.5547184869
 C         0.9192182779       -3.6114985442        0.8147390673
 O         2.8918680597       -0.6104020474        2.1939686573
 O         0.3063609497        0.0859986622        1.2649278023
 C        -1.9109605383       -0.6374404724        2.6438603215
 C        -1.3522589479       -0.3834868110        4.0065047637
 C        -2.0462195885        0.6525451826        4.9700559561
 C        -1.0847069578        1.8562694765        5.0455872700
 C         0.2445233885        1.6642285922        6.0506530619
 O        -0.5111455611       -1.1186939507        4.4239915660
 O        -1.3600778538        2.9066239692        4.5284321651
 C        -3.4642025299        1.1776689261        4.5147116396
 C        -2.2426424706       -0.0785752929        6.2840424126
 C         1.3407302673        2.8380608202        5.8413302625
 C         2.1009223426        2.7192588619        4.5666592513
 C         3.6876519797        3.0668912871        4.5244513390
 C         4.1563311863        3.2225048213        2.9991348661
 C         4.2897859713        4.6708437665        2.4009141046
 C         3.9476043796        4.3164607465        5.2855869423
 C         4.4211990786        1.9266509964        5.1529505915
 O         1.5453820253        2.0521051262        3.7190062279
 O         4.3311621842        2.2874609176        2.2605242705
 C         4.4194122720        4.5033532468        0.8680900579
 C         3.0286143653        4.1872017076        0.3712108963
 C         2.8129969220        4.1021906783       -1.1899380482
 C         3.2564721257        2.6565349161       -1.5291685931
 C         3.7160821962        2.3030386695       -2.9267230171
 O         2.1380863400        3.8524251116        1.0953794686
 O         3.0894211161        1.7255193367       -0.7088113979
 C         1.2120606228        4.1680315990       -1.5523533459
 C         3.4296166944        5.2338225494       -1.9516447567
 C         2.5657943317        1.8769367468       -3.8837302765
 C         3.0212984378        0.8684991640       -4.9214831717
 C         1.9039370959        0.1392033802       -5.6948308226
 C         0.8439757925        1.0796715721       -6.3167860956
 C        -0.5345120813        0.4892230067       -6.6425464761
 C         2.4653048809       -0.7160016318       -6.7917619560
 C         1.3410269339       -0.8356741235       -4.5573574053
 O         4.1679433040        0.5464651131       -4.9913386734
 O         1.1361345671        2.2812215163       -6.5197324623
 C        -1.4730528876        0.4423562046       -5.4659451975
 C        -1.3839310250        1.4833383760       -4.2495134025
 C        -2.3839915879        2.7131310590       -4.1047400266
 C        -3.8078535252        2.2164544406       -4.0263317090
 C        -4.6205628560        2.1739535994       -2.7791673169
 O        -0.7424383643        1.1573733737       -3.3009408504
 O        -4.3274655603        1.7381561446       -5.0213292281
 C        -1.9717901739        3.6386461650       -2.8193213844
 C        -2.3283041858        3.5611987776       -5.3915144742
 C        -5.7699851952        1.1566676746       -2.8300715328
 C        -5.2909821576       -0.3228272819       -2.2082463242
 C        -6.1701892890       -1.6715217337       -2.2713761797
 C        -5.2621110869       -2.9339164402       -2.2269687669
 C        -4.3952876923       -3.3895460661       -0.9854548401
 C        -7.1224212231       -1.6513090023       -1.0297014104
 C        -6.9498170860       -1.6478252781       -3.6488110697
 O        -4.2732907224       -0.4121371805       -1.5662726536
 O        -5.2690009214       -3.5802140529       -3.2273672071
 C        -4.8940134007       -4.6431422202       -0.2710527940
 C        -4.1572565826       -4.9379942308        1.0298738886
 C        -4.0261799001       -6.3969078322        1.5178899256
 C        -5.4951894694       -6.9125394700        1.6782099300
 C        -6.4692735188       -6.0470483383        2.4084083925
 O        -3.5838885976       -4.0055803459        1.6357435398
 O        -5.7210428051       -8.0033645176        1.1994416544
 C        -3.1251672986       -7.1853415229        0.4790254953
 C        -3.3353842187       -6.3777236503        2.9213923776
 H         4.0275374822       -2.6551084897        3.3383183566
 H         2.5485755701       -3.5453286555        3.1197654099
 H         3.8145613314       -3.5251490704        1.9311971949
 H        -1.5924786375       -2.0648590667        1.0046975210
 H        -0.9406052552       -2.5540813612        2.5855153996
 H         2.6100918142       -2.3700709903       -0.8638742914
 H         2.0976405605       -0.6595258344       -0.4990129803
 H         0.9956460809       -1.6884307529       -1.2483583106
 H         0.9278700942       -3.9545978540        1.8743862920
 H        -0.0870062427       -3.6508241339        0.4309764336
 H         1.6231568908       -4.2014384180        0.3954316422
 H        -2.1305429840        0.1871814612        2.0503355112
 H        -2.8606967861       -1.1800007265        2.7951313199
 H        -0.0627871305        1.4547956148        7.0697853847
 H         0.7288381327        0.7940341047        5.6512512702
 H        -3.4578932288        1.5954526936        3.5133975456
 H        -3.6514500461        2.0474355388        5.1276082605
 H        -4.3355477183        0.5504135177        4.6287301710
 H        -2.5218931538        0.5873412758        7.1421011123
 H        -3.1263142360       -0.6336806297        6.2072548011
 H        -1.4103063464       -0.7063311033        6.4947039144
 H         1.9563033677        2.9862370076        6.7543396630
 H         0.7857473962        3.8062833540        5.8795429149
 H         3.4466778406        5.2544199867        2.6068502078
 H         5.2255195183        5.1151682782        2.8454530059
 H         3.2982356652        5.1251956207        4.9558764203
 H         4.9662182794        4.6283522086        5.0710644373
 H         3.6909253183        4.1872881214        6.3199871290
 H         4.0084498533        1.6740636626        6.1031188215
 H         4.2725678111        0.9323317323        4.6360460204
 H         5.4464020587        2.0531597327        5.2962085895
 H         4.6774586197        5.4759639324        0.3429536203
 H         5.0718744860        3.6623993734        0.7459783553
 H         4.1030468473        3.2461700216       -3.3356736739
 H         4.5291204648        1.5372512284       -2.8949437368
 H         0.6230793403        3.4725547837       -0.9658075822
 H         1.0406328554        3.8259136056       -2.6025277637
 H         0.8406662589        5.1687534795       -1.4097639792
 H         3.2197045536        5.1904028343       -2.9889324076
 H         3.0448650720        6.2838015145       -1.7077151416
 H         4.5202708257        5.3420220173       -1.9298817420
 H         2.3080431166        2.8772218517       -4.2517201497
 H         1.7329741023        1.4504876208       -3.3376168292
 H        -0.9466490601        1.0790141260       -7.4726423202
 H        -0.4334675699       -0.5234127340       -7.0968383274
 H         1.8244551125       -1.5874729389       -6.9308117463
 H         3.4888218241       -0.9801461966       -6.5021620950
 H         2.4723300608       -0.1969154165       -7.7238621816
 H         2.2370096568       -1.0611977525       -3.9850164271
 H         0.7396171356       -0.2638568298       -3.9399913612
 H         0.8960472468       -1.7607571735       -4.9489718309
 H        -2.5278786714        0.4651524296       -5.7038133381
 H        -1.4516381696       -0.5037383572       -4.9417789759
 H        -4.0282181893        2.0483081645       -1.8949723826
 H        -5.0737779201        3.1408854905       -2.6318851928
 H        -1.3525762055        4.4748497166       -3.1229971694
 H        -1.3509832212        3.0766214542       -2.0580499650
 H        -2.8665390123        3.9862216485       -2.3361675805
 H        -3.1759194703        3.2390458802       -6.0955109864
 H        -2.5650521758        4.5638709655       -5.3173777281
 H        -1.3643063955        3.4400526995       -5.8559907424
 H        -6.0619353618        1.0256251427       -3.8638387863
 H        -6.5427813384        1.5346549375       -2.1774163132
 H        -3.3691353739       -3.5958655285       -1.3908657671
 H        -4.2878602829       -2.6079755983       -0.2991730478
 H        -7.7817953377       -2.5652377783       -0.8729948658
 H        -7.8447405713       -0.8654792430       -1.0852026994
 H        -6.4629469401       -1.4628308325       -0.1739814517
 H        -7.4805257194       -2.6186824013       -3.6434932344
 H        -7.7059997437       -0.9081186971       -3.6574905923
 H        -6.4247445053       -1.5536726130       -4.6155337224
 H        -6.0333280577       -4.4760639604        0.0440835704
 H        -4.9082055854       -5.4044544947       -1.0813206131
 H        -7.3829995883       -6.6178381235        2.3459346907
 H        -6.2099862567       -6.1432222370        3.4966089364
 H        -6.4753524795       -5.0341552426        1.9283474284
 H        -2.2535063443       -7.6347575327        0.9340877939
 H        -2.8949536684       -6.6087125766       -0.4527912993
 H        -3.8196943821       -8.0344641972        0.2186963734
 H        -3.3430546437       -7.3522882151        3.3974175549
 H        -2.2719475118       -6.1169697594        2.7754918030
 H        -3.8577371831       -5.7602134127        3.5730556054
 Na        2.3207203673        1.5343248774        1.4482452085
