155

 C         3.3568339964       -3.1547574759        2.4837671296
 C         2.5542486425       -1.9404260957        1.9567791347
 C         1.3055608806       -2.0614006520        0.9536746930
 C         0.1381246723       -1.2158646437        1.4001209940
 C        -1.1699832937       -1.7901399163        1.9349774246
 C         1.8552252404       -1.5038017912       -0.3906482398
 C         0.8853740620       -3.5863623733        0.7288649250
 O         2.9517296946       -0.8153155680        2.0465448906
 O         0.2155923994        0.0063457477        1.3127930529
 C        -1.9753327751       -0.7369935335        2.7523084415
 C        -1.4179292625       -0.5029318459        4.1559411493
 C        -2.1334984518        0.5788988904        5.0963558033
 C        -1.0586148155        1.8044130509        5.0375797591
 C         0.2208356378        1.6721425467        5.8544723094
 O        -0.4793392199       -1.1893753703        4.5773018342
 O        -1.2715420008        2.8321260952        4.4127277690
 C        -3.4184843108        1.1148713350        4.4243165022
 C        -2.2559714841        0.1364090125        6.5829950143
 C         1.1404577018        2.9653952430        5.6334623649
 C         2.0709666603        2.7418603223        4.4637898630
 C         3.5582413393        3.1144722556        4.5027498310
 C         4.0849610809        3.2632264700        3.0595542739
 C         4.4919268807        4.6146244495        2.5451676976
 C         4.0332357267        4.3035954931        5.4374286426
 C         4.1585280155        1.7625566325        5.0163648125
 O         1.5887717293        2.1265301183        3.5177534685
 O         4.1877327069        2.2140687613        2.3937514367
 C         4.4873091653        4.8993134517        1.0055865356
 C         3.0724105184        4.6006349975        0.3989220592
 C         2.7855960484        4.4061102380       -1.1568923922
 C         3.2135693620        2.8434603529       -1.4006584049
 C         3.7503936176        2.3526418823       -2.7729918884
 O         2.1313879519        4.3074866657        1.1398534121
 O         3.0101739774        1.9757106480       -0.5849467231
 C         1.2704363765        4.5612244086       -1.3188154101
 C         3.7231842098        5.3675087945       -2.0126784344
 C         2.5729286015        2.0044839710       -3.7740927532
 C         2.9889730231        0.9154150947       -4.7733922805
 C         1.8159521493        0.1517012217       -5.5948846532
 C         0.8021812311        1.1665497426       -6.1732022545
 C        -0.6061240395        0.7964272847       -6.5783872756
 C         2.5322425613       -0.5800026829       -6.7638217913
 C         1.2451717395       -0.9330384662       -4.6763537350
 O         4.1392493668        0.5239664045       -4.8626382489
 O         1.2481883494        2.2590173880       -6.3099404538
 C        -1.6660512338        0.4580329493       -5.4934780904
 C        -1.4381087301        1.5192330169       -4.4177280895
 C        -2.3875374599        2.7122553055       -4.2904697710
 C        -3.8382646804        2.0075290556       -4.2189460948
 C        -4.4638011579        1.7732120711       -2.9156299106
 O        -0.4880102178        1.3714141322       -3.6189486861
 O        -4.3907292873        1.6890536113       -5.2263547915
 C        -2.0550102087        3.5267905001       -3.0214283983
 C        -2.1909000525        3.5471690496       -5.5253985179
 C        -5.5428163585        0.6453771628       -2.8958392588
 C        -5.0130459503       -0.6115389123       -2.1953781388
 C        -6.0199784268       -1.8256324160       -2.2779067739
 C        -5.1544163985       -3.0868056333       -2.2803780127
 C        -4.4076624506       -3.3571574204       -0.9577745626
 C        -6.9744615946       -1.7868490979       -1.1198206097
 C        -6.9655384650       -1.7550008646       -3.5167243193
 O        -3.9593812838       -0.6980481102       -1.6280883666
 O        -5.0968819342       -3.7847428751       -3.2751459935
 C        -4.8734054916       -4.6940534708       -0.2792062088
 C        -4.1880840320       -4.7992975300        1.0661465878
 C        -4.1077036592       -6.3196754541        1.5432356946
 C        -5.5295255870       -6.9391032413        1.5029230774
 C        -6.7023998199       -6.1747665864        2.1178006001
 O        -3.7655762181       -3.8550998491        1.6523944246
 O        -5.6691720237       -8.1081463484        1.2331036074
 C        -3.1757451153       -7.0668342357        0.5521808929
 C        -3.4690672509       -6.3406164153        2.9960161200
 H         3.8360004095       -2.8196213382        3.4764452285
 H         2.8032630599       -4.0573639888        2.7687304745
 H         4.2414726941       -3.3989648252        1.8340847895
 H        -1.6079230412       -2.0624115305        0.9611745841
 H        -1.0292609338       -2.6673172610        2.5610451372
 H         2.5924476252       -2.1655983238       -0.7416496893
 H         2.2590773594       -0.5210964238       -0.2582070904
 H         0.9996302429       -1.3295799114       -1.1047258979
 H         0.7706191375       -4.1265491687        1.6215793877
 H        -0.0560900298       -3.5226963761        0.1594394300
 H         1.7529342082       -4.0819663999        0.2110961683
 H        -1.9546816003        0.2708681814        2.1665166558
 H        -3.0321920078       -0.9494071848        2.7802130532
 H        -0.1804620354        1.8088366251        6.8948857202
 H         0.6828784462        0.6677573332        5.7927630630
 H        -3.1965942095        1.7371404217        3.5246464644
 H        -4.0561816484        1.8242910269        4.9543687992
 H        -4.0961886095        0.2771079932        4.2596564463
 H        -2.4413370948        0.9750269792        7.2069582753
 H        -3.0811913405       -0.5086736939        6.9119507248
 H        -1.2544862957       -0.2476382285        6.8010255124
 H         1.6114578597        3.2955230137        6.5956174922
 H         0.3736149679        3.7153060747        5.4351814612
 H         3.8593352591        5.4453202483        3.0351941163
 H         5.5011427980        4.7846510542        2.9351929394
 H         3.6488366397        5.2814461320        5.1408434353
 H         5.0957088236        4.4608615233        5.4688145466
 H         3.5627522873        4.0726073755        6.4451849238
 H         3.8844433923        1.5034163217        6.0779167980
 H         3.8620036610        0.8706081633        4.5203600296
 H         5.2960410490        1.8074586178        5.0844837944
 H         4.7948976687        5.9374252623        0.9192835823
 H         5.1796142571        4.1199486002        0.5333932403
 H         4.4675060534        3.0081625152       -3.2349580511
 H         4.2409551610        1.4413481600       -2.4944064821
 H         0.6968940019        3.8184591106       -0.7743481549
 H         1.0298197311        4.3925976684       -2.3421889414
 H         0.9653044192        5.6017182578       -1.0780379824
 H         3.1913702722        5.9031575646       -2.8549272659
 H         4.2266734124        6.1228391386       -1.5006712939
 H         4.4766876460        4.9063749290       -2.6393684256
 H         2.3883032263        2.9016430824       -4.3768749601
 H         1.6562877784        1.7867738803       -3.1540784725
 H        -0.9632850874        1.6537469558       -7.1817836254
 H        -0.6340606789        0.0299032714       -7.3124522167
 H         1.8831705632       -1.1570236823       -7.4258814912
 H         3.3396088632       -1.1711842037       -6.3453061815
 H         2.9101612954        0.2497863932       -7.4060703499
 H         2.0735196909       -1.5210673047       -4.2629788012
 H         0.6110733749       -0.4171701067       -3.8646039654
 H         0.6503702285       -1.5697254675       -5.3395580858
 H        -2.6950028309        0.5504614196       -5.8977757128
 H        -1.6720965758       -0.5458387531       -5.0310883663
 H        -3.6465166234        1.4064122704       -2.1873123574
 H        -4.7637751339        2.7888513059       -2.4891088990
 H        -1.3683430286        4.3423203532       -3.3701353434
 H        -1.4779808060        2.9491859322       -2.3205426599
 H        -2.9007961982        4.0482791044       -2.4677296577
 H        -2.6746550813        3.1788787067       -6.3440698879
 H        -2.5767302351        4.5858479220       -5.4919835292
 H        -1.1297686555        3.6074426744       -5.6683108527
 H        -5.7226846062        0.3434997735       -3.9727967190
 H        -6.4577881239        0.9310059345       -2.3080589679
 H        -3.3118491726       -3.3343833794       -1.0797232451
 H        -4.6450615311       -2.5586976186       -0.1432072361
 H        -7.7465612382       -2.4739168063       -1.3469070172
 H        -7.5847621817       -0.8223972573       -1.0951692477
 H        -6.5304917101       -1.9856092688       -0.1398079567
 H        -7.7111044124       -2.5256872583       -3.5961346850
 H        -7.5366662894       -0.7796388107       -3.5080766411
 H        -6.4073483542       -1.7714016863       -4.4407503771
 H        -5.8950335456       -4.7568157910       -0.1406161778
 H        -4.6426758848       -5.5027893324       -0.9589344911
 H        -7.5815633067       -6.2339291591        1.4374058249
 H        -6.9791155266       -6.7517555554        2.9613537358
 H        -6.3071587896       -5.2234109297        2.3765885859
 H        -2.9541849240       -7.9997053631        1.1145794832
 H        -2.3012224912       -6.4460730092        0.4697220027
 H        -3.5303378208       -7.3008212977       -0.4258628697
 H        -3.0272123053       -7.3132307427        2.9916337118
 H        -2.6237114087       -5.7099375647        3.0302453665
 H        -4.1713321376       -6.2985928324        3.8971342854
 Na        1.9981125626        1.4163037795        1.5224580674
