155

 C         2.8046147005       -3.3487517015        2.3774913152
 C         2.5035798750       -2.0704951848        1.7141234833
 C         1.1540482415       -2.0515882164        0.7938351497
 C         0.0997221958       -1.3086650339        1.6948767709
 C        -1.0625700964       -2.1049274765        2.4038568985
 C         1.4084944744       -1.2386793756       -0.4776340816
 C         0.6926256840       -3.4328401990        0.3333162091
 O         2.9815202138       -0.9923250713        2.0752909542
 O         0.1221829279       -0.0845564306        1.7932691707
 C        -1.9216931947       -1.1426878902        3.1911517553
 C        -1.3293327361       -0.5427061682        4.4542380708
 C        -2.1917892888        0.6384081291        5.1993646272
 C        -1.3452522315        1.8514628254        5.0114844209
 C        -0.0508960640        2.0006755081        5.7245192836
 O        -0.3408675854       -0.9737328578        5.0556416252
 O        -1.5127767723        2.5519249661        4.0289110702
 C        -3.6058726676        0.7572699813        4.5746234772
 C        -2.3866524188        0.3088404469        6.6451430314
 C         0.8260826685        3.2961024128        5.5036469184
 C         1.7846593031        2.8431679677        4.3263567989
 C         3.3957225730        2.8644491931        4.4777452180
 C         4.0705757642        3.3836979757        3.0907800356
 C         4.5485410698        4.8373424636        2.8669980866
 C         3.7545874022        3.7461445818        5.6418509962
 C         3.7944946232        1.3706022363        4.7488568195
 O         1.3045281723        2.2061834498        3.3585899304
 O         4.1514718356        2.6858358295        2.1362281401
 C         4.7523152615        5.1753311789        1.4087913572
 C         3.3625080376        5.0502714191        0.6463698871
 C         3.1636868058        4.8245185980       -0.9058029377
 C         2.8964459401        3.2977796807       -1.2459979861
 C         3.3027222129        2.7805053477       -2.6577108774
 O         2.3192062789        5.1513593239        1.2804809858
 O         2.5371709445        2.4509241171       -0.4502679471
 C         1.8142591081        5.5380688097       -1.4217305157
 C         4.4023795200        5.4314834944       -1.6997110156
 C         2.4003324524        1.6742266122       -3.2226774037
 C         3.1837050900        0.8495835673       -4.2696108368
 C         2.3258905887        0.3406682107       -5.5123985619
 C         1.1692698057        1.4348936496       -5.9621621415
 C        -0.0801101464        0.9379197039       -6.7167750041
 C         3.2602785074        0.0320769077       -6.7324026580
 C         1.5181730104       -0.9444639733       -4.9629173052
 O         4.3685905950        0.6449881366       -4.1371209001
 O         1.3717763038        2.6083429505       -5.9502026077
 C        -1.4482757021        0.8770972255       -6.0386180278
 C        -1.5464602297        1.8902894717       -4.8208091555
 C        -2.5648673873        3.0484351255       -4.8393045097
 C        -3.9992153653        2.1689498066       -4.5696432568
 C        -4.3185695176        1.5731004031       -3.1966901171
 O        -0.8978780330        1.6392693889       -3.8420625590
 O        -4.7386691166        1.8970518823       -5.5040870985
 C        -2.3499472206        3.9329830243       -3.5840730833
 C        -2.5386166550        3.8625542300       -6.1349992133
 C        -5.2146939686        0.2301978115       -3.3563698615
 C        -4.6189776873       -1.0979459006       -2.7812584332
 C        -5.6864011048       -2.2341825709       -2.5197036767
 C        -4.9061665913       -3.6738081780       -2.5017256430
 C        -4.1586546918       -4.0336164664       -1.2171920895
 C        -6.4386286991       -2.1149218516       -1.2152430242
 C        -6.6471467384       -2.2289793315       -3.6936250573
 O        -3.5536856588       -1.1313920852       -2.1688072635
 O        -4.8845468713       -4.4464889996       -3.4532162696
 C        -4.8046751926       -5.0406737737       -0.2311897181
 C        -4.4121274908       -5.0089118245        1.2617783552
 C        -4.2945914727       -6.4719389903        1.9000049939
 C        -5.5291511907       -7.3514831794        1.5713614075
 C        -6.8792080358       -6.8465385730        2.0647973701
 O        -4.1179768931       -3.9624755396        1.8331088034
 O        -5.4617119485       -8.3648066718        0.9397943637
 C        -2.9994004982       -7.2541987191        1.5107565753
 C        -4.3020973806       -6.3077795558        3.5084326301
 H         3.8655948509       -3.7394558976        2.4022367051
 H         2.7025660390       -3.1421325831        3.4904438108
 H         2.1688398891       -4.1559085990        2.0760795223
 H        -1.6502534205       -2.6721715584        1.6524414944
 H        -0.6825318842       -2.8607303727        3.1764944750
 H         2.1944064542       -1.7308076406       -1.1540801117
 H         1.8679349191       -0.3247439389       -0.1320628089
 H         0.5433882025       -1.1132689065       -1.0708624129
 H         0.1324549649       -4.0288342110        1.0535607029
 H         0.2163078122       -3.4263539960       -0.6017181488
 H         1.6929220206       -3.9208083565       -0.0060798464
 H        -2.2959776913       -0.3298469464        2.5913180898
 H        -2.9906118181       -1.6100644472        3.2639133395
 H        -0.2302405625        1.9260540648        6.8170813585
 H         0.5163106439        1.0470261824        5.5731745552
 H        -3.5563391899        1.2054079145        3.5996436738
 H        -4.1040653515        1.6005898074        5.1677200886
 H        -4.3554696253       -0.0868349200        4.5753231304
 H        -2.6247364417        1.2317114180        7.1209718130
 H        -3.1910517494       -0.4645648773        6.7492819948
 H        -1.5876424696       -0.1884577868        7.1880818650
 H         1.3497705373        3.5227562067        6.4171363135
 H        -0.0032048971        3.9830582147        5.1810342537
 H         3.8207443678        5.4827399343        3.3151099882
 H         5.4533172035        5.1230255621        3.5038368056
 H         3.3849826165        4.8056169418        5.5564780916
 H         4.8014352289        3.7241151528        6.0012171643
 H         3.3244759507        3.3937814743        6.5198978585
 H         3.5753618069        1.0617242874        5.7942798739
 H         3.2248449374        0.7177767598        4.1558120942
 H         4.8449887446        0.9840267017        4.6227870733
 H         5.2914709401        6.0431415888        1.1041048244
 H         5.3845601227        4.4297553100        0.9932010466
 H         3.3514172844        3.5103765039       -3.5009678897
 H         4.3186397592        2.3646273942       -2.6334899243
 H         0.9679880552        5.0677306678       -0.8936060563
 H         1.7395353337        5.3490389952       -2.5005789529
 H         1.7151951930        6.5770160582       -1.2671956942
 H         4.3974274345        4.9828186185       -2.6813844730
 H         4.3591274078        6.5247670842       -1.8263309361
 H         5.3759110403        5.1835527767       -1.2485312138
 H         1.4363498777        2.0095634757       -3.6613943330
 H         2.0835576835        0.9746295738       -2.5051907767
 H        -0.2094720989        1.6189033036       -7.5629255233
 H         0.0577356892       -0.1604905237       -7.1006866700
 H         2.9723883989       -0.8667101995       -7.2891445217
 H         4.2776907768       -0.1893451319       -6.3381247269
 H         3.3236042064        0.9123587389       -7.3722351000
 H         2.2678628847       -1.6867204637       -4.5382786521
 H         0.7399178136       -0.6790075527       -4.2081935362
 H         1.0204373758       -1.4256475955       -5.8150149122
 H        -2.2277223834        1.0434452103       -6.7642872452
 H        -1.4107710781       -0.1315234573       -5.6409777881
 H        -3.3858259620        1.2849638174       -2.6979264341
 H        -4.9453063109        2.2916792977       -2.6364432730
 H        -1.6329335991        4.7367782440       -3.7881443957
 H        -2.0002104185        3.3647398371       -2.6757328556
 H        -3.1925413773        4.4954904131       -3.2722489362
 H        -2.8911770349        3.2686229771       -6.9280116060
 H        -3.0492982020        4.8285893760       -5.9076410641
 H        -1.5631901089        4.1861868444       -6.5434819299
 H        -5.4401725678        0.1642711952       -4.4179933888
 H        -6.1525730160        0.4188539776       -2.8218806054
 H        -3.2535531761       -4.4216578382       -1.4481907789
 H        -3.9397132062       -3.1748281258       -0.6546196943
 H        -7.0820604639       -3.0128045528       -1.1180875179
 H        -7.0073844027       -1.2488776415       -1.1238717775
 H        -5.8244225826       -2.1885396506       -0.3128841602
 H        -7.6047095135       -2.7221969180       -3.4256748907
 H        -6.9285718377       -1.2333723538       -4.0315092854
 H        -6.2578677555       -2.8268020778       -4.5140357498
 H        -5.8711141795       -5.0198977524       -0.3252921953
 H        -4.5645770348       -6.0175288442       -0.6450566419
 H        -6.6065806295       -5.9634218501        2.5233767403
 H        -7.6123930105       -6.6421477139        1.3185517741
 H        -7.2853206975       -7.6446848715        2.7019240007
 H        -2.4052646649       -6.6282358437        0.8782185063
 H        -3.3050995627       -8.0723350685        0.8528037662
 H        -2.4158718350       -7.7128641721        2.3443205594
 H        -4.4295493447       -7.2863175327        4.0445398187
 H        -3.3635424355       -5.7643954630        3.7162048248
 H        -5.0295571486       -5.6037605799        3.8098228071
 Na        2.0770968664        1.2372568333        1.5474680880
