155

 C         3.1077816482       -3.3600267947        1.6891651534
 C         2.2364867163       -2.0008105062        1.3767236453
 C         0.7758248345       -2.2362348683        0.8747933044
 C        -0.1551154178       -1.2033186925        1.5930945179
 C        -1.3127541718       -1.8490884108        2.3794608360
 C         0.6088716675       -1.8008075819       -0.5706925824
 C         0.3691504208       -3.7461058162        1.1307229063
 O         2.7969823269       -0.8717822263        1.4421865002
 O        -0.0682635003        0.0284983761        1.4915907966
 C        -2.1264824363       -0.6953447252        3.0225579740
 C        -1.4946396527       -0.4070008607        4.4319117375
 C        -2.2584762763        0.5812315492        5.5373821125
 C        -1.7597743282        2.0654469637        5.0920310620
 C        -0.4931695581        2.5993852026        5.9040161607
 O        -0.4479838952       -0.8645732958        4.7587990198
 O        -2.4151364839        2.7078903648        4.3492918967
 C        -3.7495644786        0.5534254154        5.2225577222
 C        -2.0478564808        0.0974322380        6.9413850695
 C         0.3239679804        3.6882835533        5.2082061654
 C         1.1958943604        2.9766410885        4.1080949779
 C         2.7420554260        2.6028318770        4.5773690726
 C         3.6446506184        3.0233172523        3.3463863182
 C         4.2056263174        4.5069617488        3.3321122006
 C         3.2154143749        3.2480714385        5.8919262158
 C         2.7770897409        1.0372940513        4.7640909717
 O         0.7512678437        2.4232907669        3.1332029654
 O         3.7608243827        2.2815537112        2.3981415738
 C         4.6909207115        4.9143175823        1.9675562154
 C         3.5276355970        5.4632966472        1.0513005928
 C         3.4362827957        5.0014163389       -0.5052078184
 C         2.4194223282        3.7971473806       -0.6870395669
 C         2.0037192151        3.4866213607       -2.1000380788
 O         2.8058642283        6.3578227190        1.4453268819
 O         2.1379402238        3.1269793287        0.3191108850
 C         2.8904856392        6.2092664595       -1.3905778752
 C         4.7733500809        4.4411626214       -1.1197230209
 C         2.0938465724        1.9366954054       -2.4038781374
 C         3.0884846986        1.7495243275       -3.6596400706
 C         2.5500504374        1.1143644408       -5.1654462031
 C         1.9105957814        2.4100755088       -5.8461975964
 C         0.8913804258        2.3791964156       -7.1085963790
 C         3.6807759315        0.7125261242       -6.0423290415
 C         1.6495655541       -0.0992548041       -4.8760412733
 O         4.2151276824        2.1453013145       -3.5766967828
 O         2.1939471663        3.5190490641       -5.3969276056
 C        -0.4564543702        1.7606829139       -6.7802903240
 C        -1.2057873232        2.3181256745       -5.5140369137
 C        -2.7714177686        2.6357823863       -5.5189713593
 C        -3.6377542313        1.2972493960       -5.4302144348
 C        -3.0953337872        0.1347762104       -4.5394046021
 O        -0.6435164963        2.2449375797       -4.3895081659
 O        -4.6753320382        1.2237209647       -6.0469450906
 C        -3.3774140329        3.3825623464       -4.2864406377
 C        -3.2574869609        3.4234516972       -6.8185228282
 C        -4.1758671204       -0.8237931788       -4.2587098113
 C        -3.8600228448       -1.9005858266       -3.1971613834
 C        -4.9430262451       -3.0116041526       -2.9100348050
 C        -4.3284393276       -4.2652961855       -2.3506057163
 C        -3.6876472984       -4.3586854600       -0.9150007845
 C        -6.0222009807       -2.4205610981       -1.9437609680
 C        -5.5814335319       -3.3905083700       -4.2420645308
 O        -2.8476568104       -1.7527059841       -2.5359745984
 O        -4.2721303524       -5.2179147965       -3.1755579537
 C        -4.3224694379       -5.5295484586       -0.1610341061
 C        -4.1852186643       -5.4236542625        1.3734262589
 C        -4.6829157169       -6.6026857855        2.2919696005
 C        -5.6766364930       -7.5599509527        1.6227320852
 C        -7.0019077854       -7.8989497471        2.2605683769
 O        -3.5654670747       -4.5080293070        1.8623962978
 O        -5.4541095942       -7.9818750470        0.4989076033
 C        -3.4700301793       -7.3527714213        2.6808008400
 C        -5.3589115398       -5.8907872247        3.4933305868
 H         3.5448264708       -3.6647056904        0.7663657021
 H         3.8516775475       -3.1509431869        2.4218712916
 H         2.6607644846       -4.2394683140        2.1547270083
 H        -1.8593048381       -2.4664193246        1.7381306366
 H        -0.7784261339       -2.4556989880        3.0932168412
 H         0.8161875237       -2.5672351694       -1.2537043465
 H         1.2823653225       -0.9726947871       -0.8221029383
 H        -0.4254513536       -1.3115979720       -0.6555977010
 H         0.2773439614       -3.8485039598        2.2008184466
 H        -0.5586540908       -4.0226335626        0.5457807595
 H         0.9963875965       -4.4660079253        0.7739626528
 H        -1.9231496500        0.1662957791        2.3401164394
 H        -3.1751400785       -0.9449406781        3.0459632195
 H        -0.8453554932        3.0517159554        6.7968874342
 H         0.2175718184        1.8227540596        6.1925357787
 H        -4.0046019879        1.1344320474        4.2843031740
 H        -4.3726569717        1.0849030709        5.9509501925
 H        -4.0534705103       -0.4962163487        5.2339553465
 H        -2.2176099461        0.9339106866        7.6007763866
 H        -2.6912932024       -0.7311244283        7.2906811937
 H        -0.9902805926       -0.2037354526        6.9419266655
 H         1.0841558674        4.1712009222        5.7622446525
 H        -0.2593154063        4.4449593841        4.6474875274
 H         3.3978076279        5.1053866369        3.7077460071
 H         5.0990629330        4.6202178611        3.9730578166
 H         2.9631915324        4.2591412981        5.9802121227
 H         4.2552909989        3.2691479498        6.0914894762
 H         2.9557542653        2.6360165553        6.8048034904
 H         2.1544284290        0.5723474315        5.4656202892
 H         2.5040258587        0.5859957515        3.7838447517
 H         3.7522403804        0.7337246560        5.0060176233
 H         5.3188250580        5.8340470629        1.9937532971
 H         5.2965838821        4.0788186602        1.4217965947
 H         0.9556189565        3.8016459176       -2.1397850986
 H         2.5257668741        4.0808408876       -2.8186655067
 H         2.1019995505        6.7642448984       -0.8926794811
 H         2.5905985845        5.9310627019       -2.3730506302
 H         3.7448583205        6.8843433011       -1.5972488718
 H         4.5154033198        3.7675940294       -1.9941234298
 H         5.3127588138        5.3290412464       -1.2865147570
 H         5.3609971807        3.7868428696       -0.4660031909
 H         1.0529061323        1.4948849093       -2.4627910048
 H         2.5598316435        1.4185964896       -1.5379002609
 H         0.7843377864        3.3740678667       -7.5018578976
 H         1.3210278168        1.8620454369       -7.9252745510
 H         3.6884472901        0.8860345380       -7.0994485077
 H         3.9536887807       -0.3201910912       -5.8564918790
 H         4.5030331386        1.3966426439       -5.7306201258
 H         2.1087063081       -0.7948477055       -4.1503959785
 H         0.6358713469        0.1481742586       -4.4513506185
 H         1.4723260083       -0.7222241605       -5.7352656581
 H        -1.1461358695        1.9502741472       -7.6534336717
 H        -0.4173266553        0.6705743957       -6.6524658290
 H        -2.1972810114       -0.1813909567       -4.9534270724
 H        -2.6745127501        0.4680069946       -3.5581950967
 H        -2.9764148465        4.3493488376       -4.0688676396
 H        -3.2398124463        2.8109353541       -3.4449854327
 H        -4.4716959969        3.5496400571       -4.3207057789
 H        -2.8588716148        2.9438887520       -7.7700124064
 H        -4.3344532529        3.3822435086       -6.8998428299
 H        -3.0291710748        4.4735684130       -6.6718648986
 H        -4.7103549488       -1.1053512436       -5.1195880737
 H        -4.8957858563       -0.1954260668       -3.6951917178
 H        -2.5004957612       -4.4625900444       -1.0079721778
 H        -3.8169794338       -3.4537925157       -0.3005161478
 H        -6.5885411552       -3.2340091867       -1.6595040551
 H        -6.7106278374       -1.6519865998       -2.3899418839
 H        -5.6387929240       -2.0002736985       -1.0392758085
 H        -6.2053467313       -4.2501759863       -4.1675309856
 H        -6.1925037301       -2.5166804583       -4.5815654409
 H        -4.7298953139       -3.6061751561       -4.8528841411
 H        -5.3827785417       -5.4749224293       -0.4127700634
 H        -3.8811029820       -6.4840968674       -0.6766047759
 H        -7.6620632800       -8.1442673569        1.3471357499
 H        -6.7836417631       -8.8491278143        2.8034967984
 H        -7.3812913463       -7.1240512507        2.9080332362
 H        -2.5912822398       -6.7869351453        2.4956603554
 H        -3.3068159109       -8.0551810627        1.8594590057
 H        -3.5069774166       -7.8643141146        3.5807956530
 H        -5.7606548541       -6.6568515309        4.1574358149
 H        -4.8116774197       -5.1588468353        4.0625737161
 H        -6.2506077358       -5.3642795730        2.9467494846
 Na        1.9533789158        1.2799879167        1.4352189603
