155

 C         3.2593383586       -3.1193039629        1.4817664020
 C         2.2892046269       -2.0108616982        1.3110686711
 C         0.6602427920       -2.3562655646        0.9393495455
 C        -0.2806960912       -1.3001022959        1.5672592202
 C        -1.6317232178       -1.6798048669        2.2653927233
 C         0.7682699422       -2.0046758955       -0.6679695716
 C         0.1688192384       -3.7963347193        1.1383872563
 O         2.6291253847       -0.8862271266        1.3834025830
 O        -0.0974348613       -0.1099520579        1.4699760841
 C        -2.1821636378       -0.5418689275        3.0859637717
 C        -1.5562101599       -0.3532137976        4.4973919972
 C        -2.2962297777        0.6800091933        5.5356677391
 C        -1.7690450473        2.0548313145        5.2341743363
 C        -0.5132863080        2.4955628243        5.9934772021
 O        -0.4729293490       -0.8079200688        4.8343335735
 O        -2.3246361711        2.7533709542        4.3829436814
 C        -3.8523494215        0.5073782097        5.3508276241
 C        -1.7801398841        0.2248774950        6.9483321379
 C         0.0178279159        3.6329378135        5.1683591185
 C         1.0665404454        2.9489845112        4.1327074363
 C         2.5268006651        2.5523126520        4.5305714151
 C         3.5526046684        2.9621954862        3.3371171562
 C         4.1902550147        4.4028105880        3.3831005563
 C         2.9503064308        3.3008858892        5.9005316004
 C         2.6276183281        1.0870742271        4.7825022534
 O         0.6787816585        2.3969694385        3.1114082380
 O         3.7372620392        2.1828164071        2.4374926331
 C         4.8054412482        4.8101347455        1.9998638049
 C         3.6492896759        5.4263945804        1.0508813863
 C         3.4853087249        5.0226853020       -0.5118485001
 C         2.4759120698        3.8175247757       -0.7047800619
 C         1.8422560197        3.6597868996       -2.1264605360
 O         2.9349394748        6.3153582260        1.4376703619
 O         2.1112145834        3.0132120608        0.0923326071
 C         3.0214701371        6.3828929970       -1.2374276823
 C         4.8424767627        4.4869130183       -1.1082556829
 C         1.8850426877        2.2491785282       -2.6825424427
 C         3.0831582375        1.9342388439       -3.6132540644
 C         2.6038951960        1.3681959417       -5.0345691602
 C         1.8534519580        2.6066467705       -5.6712208244
 C         1.0050569474        2.2549347668       -6.8550569760
 C         3.9044646768        0.9463507128       -5.7609578275
 C         1.5812387868        0.1795007215       -4.7227878092
 O         4.1830236915        2.3257631185       -3.3913845948
 O         1.9958225134        3.7014918728       -5.1866628497
 C        -0.5447552722        1.9864693304       -6.8000768776
 C        -1.2633515968        2.3705800097       -5.5098253912
 C        -2.7454753466        2.6423844054       -5.6537222603
 C        -3.4768525352        1.1290549649       -5.6510920435
 C        -2.7779282368        0.0986395999       -4.6600748710
 O        -0.7139277248        2.3015049299       -4.4633017646
 O        -4.4407791339        0.8028072426       -6.2828699908
 C        -3.2377132973        3.2038184365       -4.3275232108
 C        -3.2264570908        3.4975246654       -6.9346823215
 C        -3.9288626518       -0.8956018702       -4.3392985391
 C        -3.6611559360       -1.9543669452       -3.2592931506
 C        -4.8042896901       -3.0724138614       -3.0944884800
 C        -4.1814662565       -4.4293618074       -2.4192343382
 C        -3.8083012522       -4.3441393215       -0.9542789975
 C        -5.8975962910       -2.5365821085       -2.2200439560
 C        -5.4717460642       -3.4178932926       -4.5166024981
 O        -2.7542896364       -1.8647795225       -2.4799858109
 O        -3.8939620504       -5.3773946897       -3.0497507815
 C        -4.4020037582       -5.5685993028       -0.1541753330
 C        -4.0621061297       -5.5278525497        1.3290466571
 C        -4.7321483829       -6.5741180906        2.3835034704
 C        -5.6937996137       -7.4881870757        1.6829376978
 C        -7.0819489053       -8.0040854712        2.1477145247
 O        -3.4106539811       -4.5881585684        1.7771827601
 O        -5.3942453290       -7.9963075524        0.6128110211
 C        -3.6107698416       -7.4850453079        2.9694075346
 C        -5.1879132051       -5.7842789864        3.6592698872
 H         3.0166528419       -3.8931110224        0.7145466590
 H         4.3238810234       -2.9274341960        1.5944998445
 H         2.9473965629       -3.5654626562        2.3953206604
 H        -2.3424975615       -1.9889965135        1.4379900408
 H        -1.5023178066       -2.5355029122        2.9240018938
 H         1.4176230068       -2.8129877979       -1.1220543040
 H         1.2640090546       -1.0660086942       -0.8410574725
 H        -0.1616409616       -1.9477930049       -1.1293411469
 H         0.6070447612       -4.2058651905        2.0337068713
 H        -0.8515723516       -3.8811507111        1.1377497886
 H         0.4669901382       -4.4163345868        0.1918035042
 H        -2.1327805177        0.3737976134        2.5056363126
 H        -3.2377283552       -0.9315351219        3.2630006516
 H        -0.8610840181        2.9363250107        6.9848353404
 H         0.2385394468        1.7390233819        6.2400912654
 H        -4.0746011497        1.1445944053        4.5700551833
 H        -4.3629072323        0.9713686772        6.2253460786
 H        -4.2603649841       -0.4962151612        5.3102317796
 H        -2.0685148880        0.9804902324        7.6566140272
 H        -2.3423887664       -0.6819699242        7.1653337622
 H        -0.7445203572       -0.0491548304        6.9984388720
 H         0.5623391442        4.4500434468        5.6821226188
 H        -0.7240929147        4.1736038584        4.5510793544
 H         3.2956729734        4.9799973422        3.7552286837
 H         5.0713882494        4.4493392430        4.0388197894
 H         3.3448162527        4.3574571577        5.7307369811
 H         3.6971842360        2.7330020366        6.4884797172
 H         2.2191983672        3.3472516497        6.6357468548
 H         2.0613202358        0.7673648309        5.7111231002
 H         2.1319904894        0.6072351438        3.9908798845
 H         3.6607848780        0.6513273934        4.9921754335
 H         5.6155433053        5.5137918669        2.1280351970
 H         4.9982181289        3.9362361485        1.4696205287
 H         0.8455562626        4.0852220674       -1.9609774699
 H         2.3294720483        4.3034454159       -2.8801986247
 H         1.9790116865        6.6069364724       -0.9691679631
 H         3.2255284147        6.3760639433       -2.3290327139
 H         3.6097970471        7.1869840033       -0.8665717725
 H         4.6520315152        4.1098957411       -2.0789083428
 H         5.6416753252        5.2511842929       -0.9313866262
 H         5.1113252268        3.5883366763       -0.5481825881
 H         0.9921869705        2.0497486862       -3.2860473776
 H         1.7527323619        1.6106211996       -1.7831359250
 H         1.1915222757        3.1297757800       -7.5102767738
 H         1.5838299478        1.4210526732       -7.3870088705
 H         3.7569081925        0.7629623157       -6.8319049668
 H         4.2803806125        0.0090084288       -5.3679227366
 H         4.6311213108        1.7129407717       -5.7619192890
 H         2.0418086653       -0.4435469240       -3.9836551470
 H         0.6216209331        0.3851963666       -4.3480737648
 H         1.3671265203       -0.4694927046       -5.5738561764
 H        -1.0371550646        2.3856862978       -7.6583622718
 H        -0.7047197236        0.8850964687       -6.7304817671
 H        -1.7347636025       -0.2259287410       -5.0739297622
 H        -2.3983607446        0.5031689614       -3.7279586587
 H        -2.5206722199        3.8981101802       -3.8732405151
 H        -3.3736774727        2.4060806196       -3.5224126813
 H        -4.1401384468        3.7499944960       -4.4037936294
 H        -2.4091318590        3.6969172489       -7.4959364282
 H        -4.0096857903        2.9244391532       -7.4840284985
 H        -3.7682273952        4.3900437669       -6.6484880555
 H        -4.3012447275       -1.4455675751       -5.2739294234
 H        -4.8045440897       -0.3016425087       -3.9755507019
 H        -2.8090276526       -4.2676154114       -0.8593442057
 H        -4.1362579013       -3.4631257921       -0.4773336631
 H        -6.7030764330       -3.2656096480       -1.8719542893
 H        -6.2374213063       -1.6329065696       -2.6327378974
 H        -5.4250944305       -2.2363434263       -1.2510452273
 H        -6.3384759122       -4.0618084901       -4.2905122261
 H        -5.7992903780       -2.5419243689       -4.9869598138
 H        -4.7701996447       -4.0150138334       -5.0920420459
 H        -5.4997910551       -5.5977175212       -0.2718514401
 H        -4.0549808144       -6.3964805110       -0.6321182609
 H        -7.6885725762       -7.8905362240        1.2880546367
 H        -6.9907041033       -9.0637980567        2.3633173899
 H        -7.3658086179       -7.4102130369        3.0194042266
 H        -3.1516308088       -7.3644324135        3.9396905860
 H        -2.7420581664       -7.5686846139        2.3529138122
 H        -4.2123946716       -8.4151525662        2.9036136946
 H        -5.2058912093       -6.5280525454        4.4428486495
 H        -4.4647413721       -4.9984798834        3.9010088982
 H        -6.1013039066       -5.3090802582        3.5698029629
 Na        1.5690629561        1.2143924774        1.4227547437
