155

 C         2.7566258798       -3.0060647768        1.3432261798
 C         1.8694732773       -1.8608163601        0.9989861173
 C         0.3044984850       -2.1270747509        0.6469695290
 C        -0.6623683541       -1.1073111593        1.4881579656
 C        -1.6846422301       -1.7417583893        2.5301303553
 C        -0.0005383030       -1.9035858381       -0.8324567105
 C         0.0134708353       -3.5762205968        1.0666105928
 O         2.3097671381       -0.7248009043        1.0324061550
 O        -0.5843952886        0.0707408119        1.4473373151
 C        -2.4849567839       -0.7278734807        3.4266563208
 C        -1.7123470726       -0.3960730663        4.6514119838
 C        -2.3168879985        0.5290845559        5.7466698624
 C        -1.9841113220        2.0677054440        5.1114164712
 C        -0.9928225468        3.0771613073        5.7978450218
 O        -0.6926308349       -1.0655220628        4.8333717497
 O        -2.6983157226        2.3869854155        4.1771040800
 C        -3.7979777560        0.4144564721        6.1509196774
 C        -1.5675785184        0.1998823483        7.0715747956
 C        -0.4201589794        3.9664693031        4.7259354916
 C         0.6058357400        3.0397832224        3.8660314913
 C         1.9975274986        2.5726278394        4.5516108684
 C         3.1178298834        2.6220175390        3.5315744633
 C         4.4187104700        3.4645603214        3.6735628023
 C         2.2765586817        3.3167251268        5.9314508188
 C         1.8002218040        1.0119086265        4.8974439954
 O         0.4292012486        2.7208805089        2.7519777694
 O         3.0617587604        1.9688096122        2.4506006720
 C         4.9063900776        4.1104497409        2.3510858151
 C         3.9233551870        5.0747947292        1.7321133908
 C         3.6921855718        5.1764767439        0.0556024755
 C         2.6435840078        4.2340671596       -0.4882267652
 C         1.7143958977        4.6252338334       -1.6371290214
 O         3.5283172795        5.9416083480        2.4471520293
 O         2.4555084115        3.1943642601        0.0572281393
 C         3.3509777844        6.6701718503       -0.2167963278
 C         5.0108594436        4.7690034389       -0.5829286399
 C         1.2955038789        3.4319801350       -2.4882549980
 C         2.5361290930        2.6446866906       -3.1138704311
 C         2.5302511493        2.2786447419       -4.6701173835
 C         1.7051693508        3.3627862092       -5.4715162455
 C         1.0476234448        2.9997921681       -6.8137103076
 C         3.9650667549        2.4210879451       -5.2137557527
 C         2.0518544229        0.8067955431       -4.8285721077
 O         3.4588947126        2.4024990912       -2.3737338171
 O         1.8306766025        4.5213893116       -5.0907150811
 C        -0.1570437861        2.0699730103       -6.8769669636
 C        -1.1251185058        2.2596241549       -5.7482146407
 C        -2.7162663279        1.9886736974       -6.1436635067
 C        -2.7714988595        0.4899069125       -6.1417285328
 C        -3.4891961758       -0.3004872855       -5.0063190881
 O        -0.7388610977        2.4967568034       -4.6467067236
 O        -2.2580928068       -0.1223349499       -7.0737951929
 C        -3.6852722817        2.7733330820       -5.1924815788
 C        -2.9773111131        2.5238445928       -7.5579717863
 C        -3.3602386051       -1.8599084464       -5.2180187960
 C        -3.3458939618       -2.5632302214       -3.8448998468
 C        -4.2033527604       -3.9111192894       -3.4458632322
 C        -3.5361288943       -4.6475566593       -2.2549286095
 C        -3.8215837487       -4.2009238330       -0.8198544402
 C        -5.7306264069       -3.5566189539       -3.0939410455
 C        -4.1888716028       -4.8580896465       -4.6930977078
 O        -2.6923164621       -2.1166812737       -2.9193340856
 O        -2.8505118796       -5.5716921819       -2.5100675859
 C        -4.2764786102       -5.4166717790       -0.0874247329
 C        -3.7695868988       -5.4835585761        1.3670703916
 C        -4.6444892120       -6.3453080094        2.3960522400
 C        -5.5639791599       -7.3460869982        1.5202427063
 C        -6.9605399809       -7.6568914946        2.2358077519
 O        -2.7653119361       -4.9742361622        1.7511688383
 O        -5.0630279182       -8.0573156049        0.6653995794
 C        -3.5739143523       -7.2108210946        3.2466578818
 C        -5.5137739965       -5.4434311780        3.3184089847
 H         3.7454733991       -2.9755627406        0.8768561694
 H         2.9494617878       -3.1280838382        2.3926694742
 H         2.3001765876       -3.8549922712        0.8759435242
 H        -2.4022788238       -2.3417713207        1.9314295336
 H        -1.0936586479       -2.5176063591        3.1219672122
 H         0.2613558365       -2.7566462065       -1.4786001543
 H         0.6326600349       -1.0324716540       -1.1294774208
 H        -1.0007587428       -1.6935843480       -1.0541137664
 H         0.4236123095       -3.8297975164        2.0443632278
 H        -1.0043815708       -3.7417884118        1.0445628901
 H         0.4234623036       -4.3077566661        0.2330469620
 H        -2.8651428071        0.1389003296        2.8647597243
 H        -3.2993109925       -1.2586497726        3.7882366539
 H        -1.5816715748        3.5664225406        6.5557805534
 H        -0.2780172859        2.3897661911        6.3327252161
 H        -4.3136629707        0.6343021258        5.2543828983
 H        -4.0120983401        1.1293467361        6.8960444437
 H        -3.9466910847       -0.6297990482        6.2832144979
 H        -1.7519038702        1.0293936652        7.8157220013
 H        -1.8656919081       -0.6907727297        7.4948935074
 H        -0.5316494880        0.3722500959        6.9080581459
 H         0.1345265927        4.8438008239        5.2970228625
 H        -1.2006286096        4.5366115337        4.2003846283
 H         4.1489196578        4.3050718173        4.3975619505
 H         5.1835071557        2.8145886642        4.1679570483
 H         2.3378660748        4.4082071255        5.6326723419
 H         3.2668543602        2.9329117177        6.3083030538
 H         1.4787650853        3.0806208360        6.6068402107
 H         1.0555391896        0.9622419481        5.7373759999
 H         1.5224464529        0.3713676407        4.0821718030
 H         2.8201397170        0.7393468721        5.2595630224
 H         5.8285603694        4.5948871519        2.6064435432
 H         4.9622454317        3.3620926781        1.5753421048
 H         0.8434840510        5.1151335489       -1.1373944475
 H         2.2086011524        5.4275081409       -2.2810842591
 H         2.3114293182        6.8743949105       -0.3256787141
 H         3.7709798902        6.9213596966       -1.1967814165
 H         3.8147262279        7.3512111777        0.5318216719
 H         5.1378733983        4.9246126339       -1.6385798371
 H         5.8518371878        5.3838501495       -0.1314954691
 H         5.2043287509        3.6800215382       -0.3838518233
 H         0.6043759447        3.6926584412       -3.2640667240
 H         0.7731552634        2.7276205363       -1.8420125895
 H         0.6695819009        4.0496735032       -7.1862974796
 H         1.8307232358        2.5941067224       -7.4926924451
 H         4.0036954564        1.7403758121       -6.0762055918
 H         4.6654105013        2.0527818213       -4.4657577645
 H         4.3257215638        3.4278010646       -5.4189985311
 H         2.7636445220        0.1479530447       -4.3940110421
 H         1.1116858941        0.5758317498       -4.3925579308
 H         2.0447307274        0.3743872051       -5.8539368433
 H        -0.5939158345        2.1286947827       -7.8894599321
 H         0.1052612877        1.0178506939       -6.8426751158
 H        -2.9848654262        0.0123939704       -4.0831581524
 H        -4.5917986381       -0.0705487717       -5.1787776961
 H        -3.8314800367        3.7159634105       -5.6588637494
 H        -3.3193519175        2.7926703656       -4.1251705966
 H        -4.6186113375        2.2777880480       -5.1908915663
 H        -2.2209455019        2.5878289436       -8.2419103660
 H        -3.8175553724        1.9849580924       -7.9475173228
 H        -3.3137926255        3.5516914919       -7.3970854363
 H        -2.5212070583       -2.0579481898       -5.9566664453
 H        -4.2772620705       -2.1556625817       -5.7731169241
 H        -2.9098948687       -3.8574725766       -0.3923935574
 H        -4.6135687801       -3.3792310256       -0.7782409099
 H        -6.3168329984       -4.4842958664       -2.9031607239
 H        -6.1574951370       -3.1102613665       -3.9781480808
 H        -5.8081646449       -2.8536390982       -2.3047380838
 H        -4.4849269398       -5.8540013450       -4.4336962518
 H        -4.8245675121       -4.5256627787       -5.4998976789
 H        -3.1424581670       -4.8085232855       -5.0111396644
 H        -5.3007858542       -5.5611974959       -0.0802743582
 H        -3.9516603024       -6.2494824068       -0.6567351947
 H        -7.4204452695       -6.7522243331        2.4320000189
 H        -7.5604900888       -8.3643646301        1.6585686511
 H        -6.5888215434       -8.1595122918        3.1857716543
 H        -3.8544565891       -8.2342263817        3.4658228606
 H        -3.3959550155       -6.7076418874        4.1847918940
 H        -2.7068212627       -7.4275038784        2.6297431679
 H        -5.7786110696       -6.0400078390        4.1880756484
 H        -4.9897572857       -4.5833545184        3.7855093601
 H        -6.4412163012       -5.1866127060        2.9491536994
 Na        1.3988064191        1.2880175379        1.0497013920
