155

 C        -0.2708450758       -7.0171642478        3.0963221790
 C        -1.1512133021       -8.4053112880        2.7667287190
 C        -1.9275099902       -8.5183853588        1.2781466620
 C        -2.3001054699       -7.0614837459        0.6683220615
 C        -3.6673888333       -6.4902345470        1.1882284546
 C        -0.7856965537       -8.9963816016        0.2942717466
 C        -3.1414083674       -9.4428937113        1.4378602582
 O        -0.9504193180       -9.3435795450        3.4925768833
 O        -1.5737717589       -6.5431457540       -0.1769566698
 C        -3.7889776021       -5.0108751127        1.3302136042
 C        -4.7494299116       -4.3141061645        0.4013887116
 C        -4.7384309194       -2.8240514127        0.1488648708
 C        -3.3891999063       -2.4744676965       -0.5526900924
 C        -3.1976407273       -2.8235499759       -2.0820414381
 O        -5.4133248703       -4.9264060640       -0.4296808675
 O        -2.4365608644       -2.2537558480        0.1516592362
 C        -5.9473341582       -2.4521268954       -0.7153258839
 C        -4.6693386027       -2.0797300162        1.5111710717
 C        -1.8924874389       -2.3048647747       -2.7183482699
 C        -1.2660002613       -1.1404446484       -1.9343303644
 C         0.1092069139       -1.1492139558       -1.2572538158
 C         1.1226277099       -0.2878055655       -2.0203751113
 C         2.5478350560       -0.8251389715       -2.4838707912
 C        -0.0417926423       -0.3859128841        0.1940331381
 C         0.6533233542       -2.5604477930       -0.9102861540
 O        -1.8943460999       -0.0630606065       -1.8265015445
 O         0.9249909480        0.8614848253       -2.3240704109
 C         3.3673156521        0.1884894903       -3.2416852211
 C         2.7879731585        0.1664286883       -4.6763796397
 C         2.9422398131        1.3738980451       -5.6644463071
 C         1.5765177310        1.9690531350       -6.2226015904
 C         0.6115403380        0.8782430590       -6.8257669533
 O         2.2065858669       -0.8324363210       -5.1304125873
 O         1.3556344745        3.1430295722       -6.1570738057
 C         3.7722538149        2.5955156635       -5.0479941146
 C         3.8943368952        0.6332344526       -6.7334925211
 C        -0.7793633134        1.4244796675       -6.9408388556
 C        -1.2367293111        1.9769149167       -5.6089661852
 C        -2.4549330553        3.0161641542       -5.6965111052
 C        -2.4676341468        3.8327320783       -4.2855522393
 C        -2.0672683090        5.2990513334       -4.0448399278
 C        -2.2913286829        3.8408119933       -6.9263872681
 C        -3.8557129654        2.1807725213       -5.6721368881
 O        -0.7418660839        1.6044845267       -4.5747089833
 O        -2.7715572748        3.1101220897       -3.2912154761
 C        -2.0993638482        5.8568048075       -2.6408581382
 C        -0.8745747633        5.2325159527       -1.8074095548
 C        -0.6001570296        5.6712910851       -0.3284581115
 C        -0.8180343058        4.2239388951        0.4202695479
 C        -0.7080808159        4.3712010091        1.9771681476
 O        -0.2440744744        4.3632772484       -2.3757825427
 O        -1.1570798287        3.2394526196       -0.1647079315
 C         0.7905227312        6.2146700172       -0.0617721418
 C        -1.7168575561        6.7532318118        0.1071339162
 C         0.6692525019        4.4353348204        2.6760006026
 C         1.6211156159        3.3621677558        2.0320950403
 C         2.7927801263        2.7344069194        2.8705644268
 C         2.3218856020        1.1672121509        3.2863160477
 C         2.9482232116        0.5661363806        4.5582010870
 C         3.9748767058        2.5452385212        2.0018298326
 C         3.0456553645        3.5878484936        4.1883524104
 O         1.6294317002        3.1643142106        0.8403795398
 O         1.5640914246        0.5948641477        2.5924851144
 C         2.2292164123        0.7070590259        5.8970216929
 C         2.9325445570       -0.0623440231        7.0182820544
 C         2.1356466962       -0.2794435359        8.3622575658
 C         1.1948626004        0.9379539150        8.8013209861
 C         0.8495900854        1.1041340987       10.2666047260
 O         4.0746084018       -0.3482017237        6.9958993205
 O         0.7974052925        1.7396103012        7.9987045790
 C         1.1590949104       -1.4480222981        8.1015422261
 C         3.0483370045       -0.7819119826        9.4997440146
 H         0.4625546179       -7.0824862887        2.3335459516
 H        -0.7885357215       -6.0243152224        3.0774103505
 H         0.2456650023       -7.3144044050        4.0126781453
 H        -4.4236117035       -6.9537673262        0.4878587103
 H        -3.9042490408       -7.0246284510        2.0996630981
 H        -0.9642249776       -8.6267776199       -0.7115167474
 H        -0.8764787192      -10.0486772531        0.2387372133
 H         0.1992299956       -8.7111506677        0.6436671555
 H        -3.8815894090       -8.8530881896        1.8147182637
 H        -3.3703096959       -9.8552447017        0.4528214074
 H        -2.8988960003      -10.2492305270        2.1060025303
 H        -4.1650328739       -4.7285026661        2.3763479387
 H        -2.8561532485       -4.5014874931        1.3381985383
 H        -3.2898109184       -3.8919002299       -2.2587304349
 H        -4.1279952742       -2.3866349717       -2.5977870904
 H        -6.0308666359       -1.3687023647       -0.8964814105
 H        -6.8166590014       -2.7109346505       -0.0876607494
 H        -5.7705901948       -2.9038957096       -1.5890658846
 H        -3.8356788877       -2.6802352260        1.9652706068
 H        -4.4430434820       -1.0197376992        1.4528491206
 H        -5.5872107759       -2.2644080535        2.0391835708
 H        -2.1058274943       -1.8945033414       -3.7422615977
 H        -1.1622320623       -3.0724390771       -2.7086692945
 H         3.2171166972       -1.2424983880       -1.7362278875
 H         2.3363304238       -1.7072338785       -3.1684452638
 H        -0.9133739230       -0.8297519653        0.6919151611
 H        -0.0219338689        0.6212736866        0.0957884608
 H         0.8080024587       -0.7564973821        0.8161655375
 H        -0.0779990041       -2.9831877233       -0.2081829684
 H         0.7639662357       -3.2923128389       -1.7346656797
 H         1.5875144468       -2.3550563502       -0.4620687691
 H         3.2508899791        1.1923455348       -2.7554136877
 H         4.4080077451        0.0367621588       -3.1410719416
 H         1.1158297199        0.7408313802       -7.7964423841
 H         0.6718667702       -0.0583455622       -6.3166488420
 H         3.4525520859        2.8914206255       -4.0580917989
 H         3.6864252416        3.4688992965       -5.7963484571
 H         4.8541069334        2.3603374879       -4.8950340601
 H         3.3546011744       -0.1544456399       -7.2403180837
 H         4.0920267136        1.2777870664       -7.5824659176
 H         4.8005979047        0.2509740506       -6.3896952828
 H        -1.4423801686        0.5559695625       -7.2202393029
 H        -0.7790685830        2.0694654673       -7.8848782502
 H        -1.0949832130        5.4847817161       -4.5715233812
 H        -2.7657732628        5.9846263277       -4.5716231292
 H        -1.2528773309        4.1828741026       -7.0381033977
 H        -3.2355395942        4.4082391248       -7.2313705657
 H        -2.2279629168        3.1460641931       -7.7030399536
 H        -4.6507511599        2.8914227937       -5.8031709729
 H        -4.0273347179        1.4128127551       -6.4868373830
 H        -4.0009885960        1.7428801000       -4.6686003761
 H        -2.0330639240        6.9555778508       -2.5694832052
 H        -3.1071480917        5.5629113011       -2.1827469745
 H        -1.2508427053        5.2292158655        2.2855673304
 H        -1.1982985800        3.5335773648        2.5266926745
 H         1.4603969239        5.3980065975       -0.0017182908
 H         0.7060730384        6.7905732890        0.8483805578
 H         1.2152800526        6.8454674941       -0.8839904980
 H        -1.3485906637        7.2275887173        1.0372387717
 H        -1.5742299338        7.3841745214       -0.6695062566
 H        -2.7311487205        6.3010991063        0.0623566667
 H         0.5210925681        4.4270411252        3.7493619279
 H         1.1099584318        5.4899761376        2.6193065410
 H         3.1131647313       -0.4612109901        4.2275913729
 H         3.9253646716        1.0221477595        4.7295021442
 H         3.6075147468        2.5375095483        0.9713832153
 H         4.7946965456        1.8411579377        2.2942409365
 H         4.3658418936        3.5667189504        1.9944967062
 H         3.7254361794        3.0480631603        4.8177256880
 H         3.5272012481        4.5646947750        3.8810359040
 H         2.2097064498        3.7529750991        4.8497200393
 H         2.3625383601        1.6711503297        6.3297137062
 H         1.1643809358        0.5674979773        5.9095500726
 H         1.7302953551        1.0848750242       10.8727683708
 H         0.2918955697        2.0526935981       10.3826344869
 H         0.1388553670        0.3720720002       10.5849449252
 H         0.5776776221       -1.6806764930        9.0119511798
 H         1.6971373425       -2.3545477002        7.7631651359
 H         0.3891741723       -1.1418054535        7.3436936098
 H         2.4950324271       -1.3174363032       10.2682582255
 H         3.7536927662       -1.5971008555        9.1236892393
 H         3.6041533632        0.0636412187        9.8727541397
 Na       -0.9599068050        2.0608782409       -2.2986101234
