155

 C         2.3735189610       -1.5352609448        1.6471854572
 C         1.3425287379       -0.5318589384        1.1432122952
 C        -0.0536676955       -0.8610506213        0.5967509792
 C        -1.2606564979       -0.2483059977        1.5129321953
 C        -2.6380011496       -0.9303317867        1.7264768076
 C        -0.1609245747       -0.0714859033       -0.8170652001
 C        -0.2915722688       -2.3952177554        0.3718910821
 O         1.6829618905        0.6762969487        1.1904390600
 O        -1.0422628223        0.8531418826        1.8734350379
 C        -3.4767857000       -0.2148371709        2.6803382701
 C        -3.0295505839       -0.4042590509        4.1191185657
 C        -3.8236805768        0.2750440154        5.2721600434
 C        -2.9319527028        1.3439155704        5.9734451425
 C        -1.7377611770        0.6382069290        6.6757684339
 O        -2.1895278374       -1.1520664978        4.4719457717
 O        -3.2102744281        2.5100757258        6.0186190769
 C        -5.1398152346        1.0516071212        4.9740495739
 C        -4.3753661685       -0.8310668772        6.2806305115
 C        -0.4583342605        1.5113811763        6.9638039344
 C         0.4089118414        1.7983075692        5.6487876376
 C         1.9883034095        1.3931969070        5.6181240208
 C         2.6898561476        2.2968658659        4.4697545072
 C         3.1312369175        3.6780910110        4.9217593655
 C         2.7076104844        1.3364646827        6.9346249237
 C         2.0152477374       -0.0717066120        5.0471987540
 O        -0.0926013716        2.2164605628        4.6415515279
 O         2.7581118121        1.8383016966        3.3656380785
 C         3.6589032455        4.4592166216        3.7418736474
 C         2.4643119372        4.6376228854        2.7459253649
 C         2.7176695970        4.8515194825        1.2001365495
 C         1.3140847313        4.9409114018        0.5138858080
 C         0.8847197626        6.0787170558       -0.4195161019
 O         1.3341480586        4.5128699079        3.1866962143
 O         0.5138090058        4.0703956998        0.7161432657
 C         3.7179294373        6.0523576726        0.8771206223
 C         3.2750533809        3.4885834561        0.6616273985
 C         0.3659365609        5.4274195273       -1.7506455054
 C         1.4430268530        5.0733428883       -2.7382690540
 C         1.2227696936        3.9304972140       -3.9540407376
 C        -0.3101898564        3.5415189455       -4.3452882370
 C        -0.6740237984        3.3918903918       -5.8657515749
 C         2.0259912036        4.4799861960       -5.2048785653
 C         1.8303684263        2.6958558785       -3.3342418828
 O         2.5394938108        5.6022359055       -2.6836474620
 O        -1.2024889346        3.5063807160       -3.5507326738
 C         0.0649584540        2.2017512682       -6.4031537011
 C        -0.9304920504        1.2560976058       -7.0703236877
 C        -0.2042643984       -0.1820298756       -7.5522949036
 C        -0.0868064373       -0.9604380258       -6.2304164557
 C        -0.9272443202       -2.2817241927       -5.9372632607
 O        -2.0352063341        1.6011368388       -7.4504294875
 O         0.7301904653       -0.6194077020       -5.4195432398
 C        -1.0467077112       -0.8846147054       -8.6354563951
 C         1.2772861144        0.1654082032       -8.0078028311
 C        -0.3038030649       -3.4625578067       -5.2740587195
 C        -1.1031907731       -4.7999809444       -5.2600950647
 C        -0.6247895107       -5.9142948668       -4.1444103615
 C        -1.0313548410       -5.5580427552       -2.7553889314
 C        -2.4529141858       -5.0840021227       -2.6232056924
 C        -1.3943404807       -7.2836242422       -4.3947002483
 C         0.9477518648       -5.9939675565       -4.1360448271
 O        -1.9271711818       -5.0591407159       -6.1057520071
 O        -0.3921457890       -5.6119059059       -1.6618586230
 C        -3.0798184106       -5.5628800747       -1.2658873683
 C        -4.0374011627       -4.4151935935       -0.7503423249
 C        -5.0150157284       -4.6987291371        0.3339405126
 C        -4.1981254333       -4.6982780797        1.7028761778
 C        -4.0484350910       -5.9657051239        2.4911599183
 O        -3.7771554488       -3.2213042138       -1.0506045706
 O        -3.9939342445       -3.6521719324        2.2396855595
 C        -6.1018346121       -3.6188684592        0.4496296054
 C        -5.7275283813       -6.0546784045        0.1857520887
 H         2.1929767290       -1.8221320390        2.6615753807
 H         2.5187872368       -2.3064199105        0.9198378869
 H         3.2526225417       -1.0662329211        1.8004579224
 H        -3.1013732058       -1.1878417824        0.7625665901
 H        -2.2980230881       -1.7882369802        2.2709902289
 H         0.7839304688       -0.1521433477       -1.4068184644
 H        -0.4363813350        0.9176017437       -0.5914052366
 H        -1.0050590518       -0.4857958882       -1.3940083379
 H        -0.2715765536       -2.9455081303        1.3582454082
 H        -1.1513195654       -2.7293344921       -0.1320896578
 H         0.5784077808       -2.7631990186       -0.2625788280
 H        -3.6047668019        0.8799946170        2.2879972697
 H        -4.4576004557       -0.7151752575        2.7118687132
 H        -2.2312008251        0.3926493604        7.6537296267
 H        -1.5677801398       -0.3492971944        6.1766820063
 H        -4.9484009244        1.8142764002        4.2662330905
 H        -5.5476737112        1.6437517596        5.7847343574
 H        -5.9095092706        0.3848932737        4.5855580932
 H        -4.9074975106       -0.3279264241        7.0086808012
 H        -5.1729932011       -1.4728052820        5.8804333596
 H        -3.5743393733       -1.3492808886        6.7955865898
 H         0.1300688721        1.1539777932        7.8244000366
 H        -0.8721602028        2.3991571794        7.3344573879
 H         2.2639669674        4.1989429762        5.2239390288
 H         3.8729698098        3.6945078984        5.7659652771
 H         2.6495025414        2.2913560136        7.3957282367
 H         3.8386889289        1.4484533182        6.8939811781
 H         2.5071091888        0.4801819140        7.6295688143
 H         2.1507206471       -0.8340874273        5.8096382914
 H         1.2297653227       -0.4027942381        4.4121640876
 H         2.8724140889       -0.0649940966        4.3983213246
 H         4.1538538095        5.4166305117        3.9478273844
 H         4.3344854379        3.7422184574        3.2387880560
 H         0.0441026021        6.7297977328        0.0531740218
 H         1.7036364712        6.8213258013       -0.6989037454
 H         3.2478993857        7.0057742806        1.1029842230
 H         3.9049548473        5.9970250765       -0.2162686174
 H         4.6960830136        5.9056558316        1.3443135095
 H         3.3199313144        3.5275776379       -0.4308836798
 H         4.2663302878        3.2185004683        1.1200911380
 H         2.6661399839        2.7027010723        1.0490442797
 H        -0.1986376273        6.1805693212       -2.3222487168
 H        -0.2554314520        4.5321781841       -1.6297815097
 H        -1.8102079469        3.4184545781       -5.8867934628
 H        -0.4053753402        4.3075977791       -6.3459770817
 H         2.0730115981        3.6678914644       -5.9760545317
 H         3.0537119257        4.8363310893       -5.0133955496
 H         1.5137473380        5.2656876242       -5.7520788815
 H         1.5914664128        2.6872387595       -2.2799161402
 H         1.5008124102        1.7097646488       -3.6789904179
 H         2.9403007923        2.7359302524       -3.2685791013
 H         0.7997044894        2.4419056815       -7.2442148022
 H         0.6208269175        1.5423954657       -5.6310074716
 H        -1.8280707228       -1.9440274201       -5.3119348382
 H        -1.2410614839       -2.6186585367       -6.9713019729
 H        -1.2980754944       -0.3586794160       -9.5974856060
 H        -2.0245927484       -1.1473322090       -8.3128485628
 H        -0.4640317199       -1.7835888897       -8.9943494772
 H         1.8923156088        0.5690560280       -7.2311077448
 H         1.8167723567       -0.7998582221       -8.3293954117
 H         1.1640226275        0.8247502306       -8.9370617645
 H        -0.1405735384       -3.3103438852       -4.2317418557
 H         0.7581403276       -3.7464111311       -5.7096665467
 H        -2.5498432951       -4.0074961712       -2.5201769153
 H        -2.9974110985       -5.4404072759       -3.5673541378
 H        -2.1527949952       -7.1606590670       -5.1827000625
 H        -1.8710661669       -7.6276086275       -3.5218207746
 H        -0.7319377785       -8.0517562650       -4.7313531670
 H         1.0235309539       -6.6543174464       -3.2659314465
 H         1.4068861126       -6.4294827797       -5.0008626213
 H         1.3940067991       -5.0357660254       -3.8425690026
 H        -3.6589717764       -6.4799950717       -1.5265108427
 H        -2.1486731241       -5.6351001112       -0.5527728939
 H        -3.0503300897       -5.8820883162        2.9916207959
 H        -4.8024008242       -6.0186883094        3.2772567450
 H        -3.9428880578       -6.8323261322        1.9248083271
 H        -5.7838174976       -2.7775498841        1.0174797308
 H        -6.9213661735       -4.0714431818        0.9475908755
 H        -6.4954389824       -3.3833697918       -0.5312247240
 H        -6.4284506925       -6.3313130648        0.9947164506
 H        -6.3271086078       -5.9916474540       -0.7277687431
 H        -5.0518747277       -6.8392499546        0.0339590044
 Na        0.4823384953        2.4696186481        2.0896731826
