155

 C         0.4554168460       -1.7224204831        1.7038137803
 C         0.4244951140       -0.3085254222        1.1919841418
 C        -0.7112842571        0.2697830383        0.2910100836
 C        -1.7816390630        0.5500471535        1.3674289769
 C        -3.0030355720       -0.3765336810        1.4922139448
 C        -0.1712635151        1.5542847448       -0.3760934587
 C        -1.2582383713       -0.7292115149       -0.8737704761
 O         1.2220210800        0.4507006899        1.6608750875
 O        -1.4844159496        1.3425268243        2.2506907880
 C        -3.9294224294        0.1107992559        2.6406080572
 C        -3.4148733117       -0.4209193780        3.9390763020
 C        -4.0506301883        0.0216416753        5.2352914145
 C        -2.8647987583        0.9235439008        5.8531856080
 C        -1.6644284785        0.0377838109        6.3264487499
 O        -2.4930496436       -1.1715258655        3.9479299668
 O        -2.9843017050        2.1466973661        6.0462254420
 C        -5.3226900641        0.8944581983        5.1216053647
 C        -4.5143913176       -1.2136556318        6.0948953033
 C        -0.5359736245        0.9003804974        7.0535363117
 C         0.4105561162        1.6120738468        6.0541031249
 C         1.5885488171        2.3936854307        6.6063419461
 C         2.3879523191        3.0573517089        5.4841498511
 C         2.8060188907        4.5308081257        5.5594332700
 C         1.2501240560        3.3561403113        7.7930721604
 C         2.6153386364        1.4026081540        7.2371526533
 O         0.0814587137        1.5381827494        4.9134810408
 O         2.7462467121        2.4269024512        4.4767990835
 C         3.4160388466        4.8999895892        4.2096039087
 C         2.3436952806        5.0675616219        3.1712465250
 C         2.7438860290        5.3499192317        1.6513492311
 C         1.4732730482        4.9527564556        0.7729318528
 C         1.5467405263        5.4518840877       -0.6576154400
 O         1.2013509082        5.1868993357        3.5700940764
 O         0.5751334336        4.2474039093        1.1070196711
 C         2.9525246062        6.8859082079        1.5121709223
 C         3.9565840339        4.5554228714        1.1666724114
 C         0.2601526765        4.9460300132       -1.3969426744
 C         0.0776343940        5.2617643602       -2.9244447683
 C         1.0678181616        4.7739201681       -4.1586068272
 C         1.0456433544        3.1687452242       -3.9716642886
 C         0.1662355909        2.2490804745       -4.8344253900
 C         0.4279863377        5.4146743157       -5.4101621553
 C         2.5773322825        5.0944024875       -4.0029828132
 O        -0.9705595449        5.8172867762       -3.1522521652
 O         1.8619281591        2.6845474165       -3.1923695690
 C         0.8829954576        1.6409401443       -6.0212997521
 C        -0.0907330688        0.5781742011       -6.7435573331
 C         0.5596087296       -0.6180095441       -7.5973173344
 C         0.8824454758       -1.4945842804       -6.4814170903
 C        -0.0847428144       -2.6572588847       -6.0572984967
 O        -1.2291774875        0.6603219410       -6.4140402639
 O         2.0448533499       -1.5507953962       -6.0862327557
 C        -0.5230137730       -1.2144091916       -8.4470132792
 C         1.7976262207       -0.1343445440       -8.3641947130
 C         0.6023501041       -3.8720216902       -5.3178759459
 C        -0.3861689081       -5.0818088088       -5.2321884147
 C         0.0950039012       -6.1488483321       -4.0855678605
 C        -0.5076004505       -5.5441015886       -2.7698183087
 C        -1.9617008816       -5.1735744865       -2.7696467158
 C        -0.7001498022       -7.5410936022       -4.4512738644
 C         1.6017978897       -6.4260293478       -3.9227126104
 O        -1.3587337589       -5.2199166821       -5.9049678150
 O         0.2543922746       -5.2295398365       -1.8400646584
 C        -2.4609057583       -5.5710910456       -1.3279783071
 C        -3.8402112228       -4.9438019654       -1.1116198157
 C        -5.1602673130       -5.7429666912       -1.3049852552
 C        -5.6001156187       -6.0189319288        0.1965346763
 C        -4.6049828778       -6.7390079097        1.0122215118
 O        -3.9272047517       -3.7179479116       -0.8175407422
 O        -6.5945229578       -5.5855396142        0.6939625047
 C        -6.1810478390       -4.9489994115       -2.0396468507
 C        -5.0250274895       -7.0471131853       -2.1330146483
 H         1.3734178007       -2.2703229151        1.3443127857
 H         0.4549166942       -1.6111014897        2.7805320071
 H        -0.3265126112       -2.3951235262        1.1928763996
 H        -3.5953883038       -0.5279796056        0.6053069188
 H        -2.6526509536       -1.3209234826        1.6742005442
 H         0.8747504514        1.4401643524       -0.7187368051
 H        -0.4258757741        2.4075009825        0.2178710762
 H        -0.7788142583        1.7422222199       -1.2805630882
 H        -1.3844074495       -1.7100398955       -0.4156553228
 H        -2.1382540231       -0.4668762278       -1.3626291686
 H        -0.4514570644       -0.8214416377       -1.6170510422
 H        -3.7213640568        1.2061431741        2.7288659618
 H        -4.9541903690        0.0112861347        2.4224327494
 H        -2.0416483403       -0.7718185529        6.9129355875
 H        -1.1599860944       -0.4347633047        5.5458520586
 H        -5.0478172825        1.7631769946        4.4937574557
 H        -5.5724572558        1.2486328091        6.1484390025
 H        -6.1767667354        0.3042666878        4.6777569850
 H        -4.3554072926       -0.9702463940        7.0874481098
 H        -5.6086053198       -1.1779459765        6.0649112084
 H        -3.8805368552       -2.0943726663        5.8437383021
 H        -0.1109859101        0.1394390867        7.7388012347
 H        -0.9960062649        1.7019159587        7.6332128669
 H         1.9042491680        4.9736712130        5.8119063062
 H         3.4485636867        4.8258247416        6.4202583960
 H         0.8791513834        4.1958684788        7.1390592940
 H         2.0202191562        3.6833937176        8.3584507435
 H         0.5904003894        2.8056059044        8.5441888572
 H         2.4112329725        1.3763363562        8.3359209388
 H         2.4060852341        0.5063026030        6.7820522003
 H         3.6205199360        1.6530300086        6.9890147532
 H         4.0320101402        5.7657263006        4.2741205403
 H         4.1887293479        4.1669695538        3.9332994483
 H         1.6006780143        6.5735394221       -0.6313777648
 H         2.4734888833        5.2491118630       -1.1935000746
 H         2.1032431127        7.4383950731        1.8604069383
 H         3.0405014961        7.2042516728        0.4740016800
 H         3.8568143621        7.2725528936        2.0337569167
 H         4.3983733987        4.8778800738        0.2407634016
 H         4.7876886467        4.6730046952        1.9220045826
 H         3.7815002976        3.5073873165        1.2036954336
 H        -0.5288778550        5.4758238552       -0.8995218973
 H         0.0049290775        3.9344207681       -1.1199352624
 H        -0.3546195676        1.4728373324       -4.2354910538
 H        -0.6390492354        2.8383375076       -5.2130630425
 H         1.0821944599        5.0663788971       -6.2329478627
 H         0.4794152989        6.5026973485       -5.3242080510
 H        -0.5934981826        5.1342033978       -5.5585924795
 H         2.9466646778        4.6890852785       -3.0523513005
 H         3.1854630884        4.5178806007       -4.7453418207
 H         2.7972818408        6.2138171640       -4.0503965080
 H         1.1226445942        2.4612867989       -6.6671953278
 H         1.7239719656        1.0474094846       -5.5524946815
 H        -0.8491349374       -2.2255290762       -5.4695963433
 H        -0.7155713929       -2.9503970986       -6.9429478651
 H        -0.8819404978       -0.4286361372       -9.1381419951
 H        -1.3373364431       -1.3598189873       -7.8051231704
 H        -0.0995867024       -1.9967189980       -9.0837747116
 H         2.6392990015       -0.2333140080       -7.7986079927
 H         1.8723948721       -0.5341731460       -9.3619567453
 H         1.6758985132        0.9143936152       -8.5847376850
 H         0.9742092112       -3.5053434579       -4.4046209249
 H         1.4862715998       -4.1312603651       -5.8652265091
 H        -1.9907329925       -4.1689522173       -2.9692862218
 H        -2.5213673212       -5.7752750566       -3.5312261735
 H        -1.1176606887       -8.1258818600       -3.6247415975
 H         0.0493379630       -8.1518521892       -4.8658699610
 H        -1.4371214656       -7.3546819567       -5.1938682367
 H         1.7506802521       -7.1256887009       -3.1256083820
 H         2.0937667021       -6.8730744574       -4.7208195263
 H         2.0848147077       -5.4842558299       -3.7728985912
 H        -2.4804513125       -6.6855572874       -1.2521226851
 H        -1.8072155510       -4.9923515135       -0.7020729946
 H        -4.9427867322       -6.8650678499        2.0848449207
 H        -4.3352113054       -7.7299200301        0.6271611171
 H        -3.7395166051       -6.1373141578        1.0289503207
 H        -6.2907421142       -3.9099770453       -1.8332021040
 H        -7.1423485938       -5.3254899104       -1.7789563112
 H        -6.0806267408       -5.0596704548       -3.1302631461
 H        -6.0731870037       -7.4130894875       -2.1622371987
 H        -4.5905797025       -6.9396408481       -3.1334009235
 H        -4.3980685375       -7.7262208981       -1.6230249066
 Na        0.5129429300        2.5087663952        2.8203341821
