155

 C         1.0094298648       -1.9827446430        1.3517325451
 C         0.4486303438       -0.5761120397        1.6528297608
 C        -0.7610225610       -0.1392755747        0.6505363889
 C        -1.6202730962        1.0623871183        1.2976048738
 C        -3.1698048843        1.0790992039        1.4303068957
 C        -0.1751207310        0.4781893077       -0.6381255812
 C        -1.7499328028       -1.3195218346        0.3955074979
 O         0.8828437646        0.0899905620        2.5830121670
 O        -1.0432514727        2.0192022007        1.8262943869
 C        -3.5843784376        1.2198515624        2.8908760777
 C        -3.5104695536       -0.1166459067        3.6032980385
 C        -3.9070410897       -0.3033567049        5.1469033355
 C        -2.8221471216        0.5634284357        6.0270640751
 C        -1.6004596485       -0.0208601462        6.7293422330
 O        -3.0938702029       -1.1433078732        3.0231072296
 O        -3.0974206576        1.7223387484        5.9190256992
 C        -5.2697214605        0.3319507675        5.3637407061
 C        -3.9065720601       -1.7784039991        5.5087471113
 C        -0.6972582780        1.0602602681        7.3471424266
 C         0.1011984086        1.9135555132        6.3089888491
 C         1.0882354380        3.0889545856        6.9741913766
 C         1.9543781070        3.6616680145        5.8445178404
 C         2.1199640051        5.2496167980        5.8071708693
 C         0.4056941312        4.0705613092        7.8155863295
 C         2.1532277006        2.3675425887        7.9316484772
 O        -0.0698816789        1.7758154053        5.1431058780
 O         2.5088390373        2.9292290127        5.0500918085
 C         2.6395409884        5.7956375896        4.5447417783
 C         1.5913460294        5.4884517467        3.3978635077
 C         2.2063878142        5.7902370495        1.9273931370
 C         1.7627766029        4.6597822378        0.9045418979
 C         0.8966124388        5.2178303110       -0.2568468150
 O         0.4405634366        5.2552166967        3.5737212098
 O         1.9501196242        3.4497097999        1.0642971340
 C         1.8830119553        7.2619529774        1.6765321215
 C         3.7560440334        5.7025804869        2.0012151680
 C         1.3409826253        4.7398211581       -1.6454518421
 C         0.2896351050        5.0614899408       -2.7382173003
 C         0.6790705408        5.2820613896       -4.2234960370
 C         1.7308685264        4.0537426012       -4.6764303556
 C         1.0870748402        2.6337463856       -4.7188744405
 C        -0.5977198719        5.1935031710       -4.9472245366
 C         1.5051082846        6.5353475351       -4.4564620141
 O        -0.8862704999        4.8344839041       -2.4646876050
 O         2.9020842016        4.2481138358       -4.8102273077
 C         1.7205839141        1.6330223398       -5.7117206625
 C         0.8253427976        0.3307879882       -5.9962625275
 C         1.1005593100       -0.5705597791       -7.3214872819
 C         1.6231030975       -2.0209502102       -6.8279465840
 C         0.5232490284       -2.9698470034       -6.3336390776
 O         0.0136049159       -0.0993359117       -5.1591756479
 O         2.7804093541       -2.3444145781       -6.9723813089
 C        -0.3294280926       -0.5920178481       -7.9556481764
 C         2.0835359856        0.1016440788       -8.3201339089
 C         0.9920993393       -4.0831959801       -5.2690971253
 C         0.1289420185       -5.2586525346       -5.0535926992
 C         0.4061404225       -6.0925705337       -3.8416581991
 C        -0.5888418121       -5.2182522426       -2.8259703914
 C        -2.0305245182       -5.3630364675       -3.1014047197
 C         0.0741114862       -7.5145394448       -4.1221370819
 C         1.8186057765       -5.9424835408       -3.2290516485
 O        -0.7229006238       -5.5962801059       -5.8600463999
 O        -0.1137067454       -4.5465630394       -1.9773924925
 C        -2.8262600245       -6.1272128636       -1.9735248064
 C        -4.3056139710       -5.6054767763       -1.7614249330
 C        -5.4842755619       -6.6135344014       -2.1692717875
 C        -6.2823693201       -6.7865391767       -0.8132310750
 C        -5.5778152482       -7.5421202089        0.3827011673
 O        -4.5535548942       -4.5798636377       -1.2891234941
 O        -7.4464610814       -6.4557589894       -0.6507174163
 C        -6.4477005810       -5.8775007809       -3.1480246998
 C        -5.0726087179       -7.9416201618       -2.7984297565
 H         1.9677350684       -2.0346752107        1.7682392788
 H         0.4906521073       -2.8053003822        1.8750094124
 H         1.1201233180       -2.0048399160        0.3132707238
 H        -3.4293195236        2.0392408479        0.8820002248
 H        -3.7472773508        0.1789282945        1.0628683965
 H         0.3705903236       -0.2612447898       -1.2043133291
 H         0.5652692642        1.2753971484       -0.4661041152
 H        -0.9588312582        0.9877239149       -1.2641616739
 H        -2.1385297096       -1.8711804536        1.2498816528
 H        -2.6664478992       -0.9062237291       -0.0907133158
 H        -1.3501483446       -2.0246035823       -0.2712964912
 H        -2.9706520373        2.0110862204        3.4328480018
 H        -4.6412334338        1.5590409872        2.9015366462
 H        -2.0853867038       -0.6001627442        7.6002920161
 H        -1.0798436787       -0.8515549037        6.1897215046
 H        -5.3147458201        1.3983945376        5.0842786226
 H        -5.3645499834        0.4710497254        6.4508334607
 H        -6.0364178358       -0.3219004640        5.0118452638
 H        -4.1288920918       -2.0634838084        6.5881100357
 H        -4.7007022302       -2.2952215521        5.0044974932
 H        -2.9366960907       -2.1589669979        5.2180648031
 H        -0.0362783601        0.5063728613        8.0633998084
 H        -1.3339695129        1.6159295980        7.9903630544
 H         1.2339429220        5.8044772847        6.0712020820
 H         2.9244685622        5.4333206771        6.6147149935
 H        -0.4136309575        4.5967380553        7.3576558704
 H         1.1728038115        4.8936765520        8.1809832060
 H         0.0968240908        3.6036212941        8.7451007338
 H         1.6788164988        1.5917024732        8.5484711415
 H         3.1219575245        2.0397981199        7.3490874485
 H         2.5604012144        3.0797922594        8.7190885961
 H         2.5705322359        6.8845943874        4.7215692521
 H         3.6665620611        5.4095124969        4.4456940416
 H        -0.0772077771        4.7005887948       -0.0682427729
 H         0.7910214013        6.3074352227       -0.2734291020
 H         0.7703409036        7.3920128354        1.6337415381
 H         2.3239242254        7.5641005545        0.7274138991
 H         2.1731206759        7.8973318549        2.4556097342
 H         4.0779219047        5.7828313939        0.9462687390
 H         4.2987449744        6.4404929856        2.5481850699
 H         4.0016907282        4.6928031029        2.3170156670
 H         1.4158806133        3.6175683699       -1.7528808571
 H         2.3473560387        5.1849705250       -1.9820899609
 H         1.1628372558        2.1893479914       -3.6648719760
 H        -0.0009312680        2.7338044388       -4.9276161065
 H        -0.4875950264        5.0729928374       -6.0043819805
 H        -1.1679819635        6.0563228045       -4.7150529523
 H        -1.1353742532        4.2935747476       -4.6893421082
 H         2.5757350419        6.1768596679       -4.4463900687
 H         1.0838251653        7.0355740798       -5.3660921903
 H         1.3622118771        7.2651556402       -3.6623593622
 H         1.8540661302        2.0764827042       -6.6753753881
 H         2.7707441551        1.5730028859       -5.4951473168
 H        -0.2575050347       -2.4882019008       -5.7735340240
 H         0.1444100019       -3.4255943642       -7.2574065183
 H        -0.4873154126        0.3951745442       -8.2548306985
 H        -0.9787017547       -0.9043156444       -7.1453436161
 H        -0.4081510171       -1.3060558059       -8.7162344433
 H         3.0865258144        0.1593691540       -7.8252408669
 H         2.1700224765       -0.3171784179       -9.2875108140
 H         1.7446851917        1.0833705860       -8.5839158886
 H         1.1607189122       -3.5894007707       -4.2884952425
 H         2.0742859462       -4.4170227551       -5.6270304252
 H        -2.3757130973       -4.2909745059       -3.0915448794
 H        -2.2194178745       -5.5784322677       -4.1006611960
 H         0.3072111488       -7.8073755656       -5.1173261557
 H        -0.9560242073       -7.7575980661       -4.0046224307
 H         0.6239182575       -8.1974876611       -3.4634221577
 H         1.9654208175       -6.7051103502       -2.4125319672
 H         2.6122839104       -6.2786579780       -3.9611110957
 H         2.0783083041       -4.9527691596       -2.8073637996
 H        -2.7328262267       -7.1939903748       -2.1534228328
 H        -2.2330736013       -5.9501892961       -1.0048520035
 H        -6.0225858728       -7.2756591880        1.2892778214
 H        -5.6541902330       -8.6273625860        0.1902337757
 H        -4.4748802292       -7.4455432740        0.4545647596
 H        -6.8781807047       -5.0127787926       -2.5873402472
 H        -7.3516580931       -6.4990972068       -3.3570458864
 H        -6.0381064847       -5.6418329686       -4.1546426480
 H        -5.9835272324       -8.4788799371       -3.0468620272
 H        -4.5495144388       -7.6882552340       -3.6941919016
 H        -4.3264541264       -8.5414246520       -2.1485655563
 Na        1.1547851189        2.3114782498        2.9684577059
