155

 C         1.1878373386       -1.7833045298        4.0218180132
 C         1.1149717441       -0.7659217029        2.9078573419
 C         0.1393985424       -1.0849727110        1.6708984016
 C        -1.1706050106       -0.2551314764        1.9944554641
 C        -2.5618682165       -0.9017082820        1.8244412240
 C         0.9476176786       -0.5268953148        0.4271499026
 C        -0.1679463345       -2.5747215091        1.3874614796
 O         1.7502346362        0.2777985594        2.9463019394
 O        -1.1412997891        0.8610613109        2.4026093705
 C        -3.5830549898       -0.1119890440        2.6935604879
 C        -3.3807091964       -0.5155467839        4.1809232656
 C        -4.1817119564        0.1458540863        5.2369042031
 C        -3.3627823087        1.0215718415        6.1570177606
 C        -2.1682745197        0.4040570673        6.9463447631
 O        -2.5879189338       -1.4311018808        4.4411052202
 O        -3.5590888366        2.1809303181        6.1750355066
 C        -5.3591295886        0.8907410976        4.6820382880
 C        -4.7263309149       -1.0857460146        6.0801716725
 C        -1.1156527650        1.4995890160        7.3568422694
 C        -0.0828258107        1.9818961717        6.3635424501
 C         1.0155216527        3.1411124149        6.7499557129
 C         1.0864289889        4.2491128145        5.6014532392
 C         0.1960484062        5.5833753577        5.7406174830
 C         0.5895616724        3.7291916905        8.1273257227
 C         2.3682106383        2.3331738491        6.8985545200
 O        -0.0293241350        1.5222933630        5.2587812504
 O         1.7501553250        4.0246174420        4.5869990641
 C         0.0934834007        6.3486047557        4.3537147493
 C        -0.0124884784        5.2886983701        3.2266630794
 C         0.1618489209        5.7341095868        1.6673286853
 C         0.3354379166        4.5012004865        0.6354276353
 C        -0.0051761444        4.6448362988       -0.8508982394
 O        -0.7108164504        4.3666756654        3.4079439198
 O         0.7179290175        3.4491402688        1.0875105295
 C        -1.1516863037        6.5077641216        1.4559736180
 C         1.3935768540        6.6119022631        1.5195806162
 C         0.9658389844        5.3410161653       -1.7826879277
 C         0.3625670474        5.3550219974       -3.3005649778
 C         1.2388092990        5.8016934679       -4.4343574973
 C         2.0995126970        4.5841109174       -5.0385399442
 C         1.3493017434        3.2733814119       -5.3666241428
 C         0.3777636377        6.3813111029       -5.5489135907
 C         2.1303556480        6.8443140505       -3.8936814026
 O        -0.8094974923        5.0473173776       -3.5077401371
 O         3.3007744928        4.6566301418       -5.0160714741
 C         2.2952916722        2.2315032499       -6.0651069390
 C         2.0009329424        0.7519339532       -5.8084455423
 C         2.9279658673       -0.3334620283       -6.5851995349
 C         2.9294401805       -1.7599216548       -5.8128547606
 C         1.5597027309       -2.4219027573       -5.5284369833
 O         1.1919562918        0.4158362716       -4.9907419762
 O         3.9392084461       -2.2088063853       -5.4601241586
 C         2.2913255180       -0.5804192062       -7.9889566769
 C         4.3342497068        0.3568707145       -6.9013973985
 C         1.5403995812       -3.0647294236       -4.1259157904
 C         0.5643472055       -4.3458498601       -4.0691564399
 C         0.3054455296       -5.1488680131       -2.7125573537
 C        -1.2020940172       -4.9362779413       -2.3074505229
 C        -2.2551688506       -5.3675226561       -3.2608706287
 C         0.5072550534       -6.6728449241       -2.8811047655
 C         1.1256620354       -4.5287052551       -1.5427709401
 O        -0.1110592372       -4.6600342856       -5.0227336043
 O        -1.5932620946       -4.3206552748       -1.3268641631
 C        -3.5378211315       -5.9056358254       -2.6243501597
 C        -4.6845484742       -6.0647147306       -3.7238778595
 C        -5.0954304308       -7.6077809507       -4.1824377500
 C        -5.8415217260       -8.2645757936       -2.9404164677
 C        -5.0631172591       -9.0685961049       -1.9536701047
 O        -5.1558683144       -5.1180283843       -4.1945924371
 O        -7.0376207109       -8.0083790270       -2.7030039288
 C        -6.1162297281       -7.4556285430       -5.3452595171
 C        -3.8579135287       -8.3943769182       -4.5543304181
 H         0.7674948906       -1.3701160184        5.0009105922
 H         0.4536155478       -2.5341265142        3.9099731502
 H         2.2568024966       -2.0611109345        4.2408486548
 H        -2.8722795321       -1.0124716985        0.7151176349
 H        -2.5860854351       -1.9435536234        2.1379850950
 H         1.8002788103       -1.1747071400        0.1980334649
 H         1.1966624174        0.4907585727        0.4913304537
 H         0.3092627510       -0.7312646905       -0.4860625835
 H        -0.6281450686       -3.1944416734        2.1779086630
 H        -0.8110768911       -2.7300453239        0.4846197804
 H         0.7700163393       -2.9268436422        1.2039816181
 H        -3.5427161757        0.9602082864        2.4614263491
 H        -4.5700236833       -0.5529653016        2.3743614251
 H        -2.6305055763        0.0106173422        7.8598945463
 H        -1.7580843208       -0.4958781810        6.5277947791
 H        -5.0437882195        1.9245123141        4.3487221312
 H        -6.0501852155        0.9718082957        5.5373262188
 H        -5.8333445075        0.4439176283        3.8309172005
 H        -5.3068720263       -0.6224264026        6.9341471523
 H        -5.1612818819       -1.8191034904        5.4388948037
 H        -3.9086793517       -1.7213286268        6.3828783110
 H        -0.5630878562        1.0898401020        8.1237285118
 H        -1.6667515421        2.3476354968        7.7274135073
 H        -0.8385233518        5.1775840537        5.9919592659
 H         0.4506270621        6.1685467032        6.6055273308
 H        -0.4757438107        4.2788848336        8.1274460429
 H         1.3736179690        4.3535839521        8.4560874617
 H         0.5324629166        2.8958694084        8.8486546494
 H         2.5632600569        2.1380815756        7.9152982502
 H         2.3332829582        1.4025167181        6.4099806681
 H         3.1351791418        3.0018404510        6.6287953043
 H        -0.8663406012        6.9312143702        4.3114727876
 H         1.0110789248        6.8499778201        4.1248258082
 H        -0.2272050086        3.6984448476       -1.2689578135
 H        -0.9357153999        5.1856349730       -0.9360192936
 H        -2.0519927012        5.9777185344        1.7329607549
 H        -1.1850607813        6.8227560336        0.4509616466
 H        -1.1500790466        7.3380957107        2.1710050477
 H         1.5389857423        7.1274379202        0.5832623114
 H         1.5031322702        7.4110742810        2.3199846828
 H         2.2481444877        5.9645901301        1.6601152202
 H         1.9635541225        4.8505892312       -1.8317779257
 H         1.1115341089        6.3852065755       -1.5684171331
 H         1.0534225420        2.8863775333       -4.3660476744
 H         0.3557395442        3.3411311228       -5.7867434745
 H         1.0407408361        6.8107323549       -6.3095318973
 H        -0.3137805960        7.1291970197       -5.1999223287
 H        -0.2483137888        5.6073895056       -5.9543554906
 H         2.7448052034        6.5362113948       -3.0789498091
 H         2.7790908230        7.1626545623       -4.7483902858
 H         1.6607810788        7.7666973378       -3.4926673063
 H         2.3189884100        2.3238391246       -7.1218929216
 H         3.3163606761        2.4572820126       -5.7651997881
 H         0.8045534648       -1.6833523783       -5.7265346381
 H         1.4521700996       -3.2134153402       -6.2914102269
 H         2.0074738197        0.4380961172       -8.3839847086
 H         1.4463365620       -1.2492030352       -8.1001423925
 H         2.9149645718       -0.9498710633       -8.8035343532
 H         4.8190962298        0.6399226228       -5.8925287117
 H         5.0083330389       -0.3783083830       -7.3506636213
 H         4.2026146038        1.2861885006       -7.5040358968
 H         1.2472374936       -2.3588268563       -3.3778338727
 H         2.5140583357       -3.5101193514       -3.6759271735
 H        -2.5137221493       -4.5204054159       -3.9001260879
 H        -1.7755052293       -6.0460141776       -3.9625155875
 H        -0.2513080985       -7.2273519220       -2.2748408034
 H         1.4355123242       -6.8740864399       -2.4002354282
 H         0.4853600584       -7.0800933965       -3.8785960722
 H         0.8714283624       -5.1270392715       -0.6067180548
 H         2.2587116629       -4.6233060188       -1.7170025025
 H         0.8870119417       -3.4713692392       -1.2958904177
 H        -3.4604399537       -6.9665409074       -2.1944299204
 H        -3.8227995921       -5.2330174938       -1.7632926443
 H        -5.5385106030       -9.0119016947       -1.0011055291
 H        -4.9348043331      -10.1364773744       -2.2922518207
 H        -4.0885577867       -8.5809075233       -1.9245878633
 H        -7.1568990602       -7.3852763048       -4.9555476495
 H        -5.9992323314       -8.3077600407       -6.0364852613
 H        -5.9328842549       -6.4262231081       -5.7839655948
 H        -3.9848420365       -9.3527479335       -5.0963233309
 H        -3.3769226708       -7.8544686170       -5.3802304896
 H        -3.1754178132       -8.5216254700       -3.7577188039
 Na        0.6559304427        2.2277660375        3.1276910315
