155

 C         1.4972933145       -1.3603622261        4.6233797441
 C         1.3381535237       -0.7372501635        3.2431832888
 C         0.4046148050       -1.4630807265        2.2115049463
 C        -0.9920240129       -0.6372910333        2.3514010840
 C        -2.3291409338       -1.3192349620        2.1219774837
 C         0.7171074285       -1.1947267962        0.6870570697
 C         0.3777356302       -2.9786668446        2.3509773004
 O         1.7446850908        0.4091989801        3.0603084081
 O        -0.9006245439        0.5666325645        2.6351357286
 C        -3.4056611523       -0.3835974492        2.7237661693
 C        -3.4455444145       -0.6252015280        4.3176160009
 C        -4.4259883453        0.0765917938        5.1894004435
 C        -3.5464096772        1.1793763689        5.8682509184
 C        -2.2965870600        0.9495037083        6.7186330292
 O        -2.6209493016       -1.4628616111        4.7730506589
 O        -3.8486188798        2.3396950744        5.5193956475
 C        -5.5042021115        0.7633172363        4.2590870087
 C        -5.0277718187       -0.9072559099        6.2749180694
 C        -1.3990906405        2.1119562092        7.1264788133
 C        -0.0767772810        2.0903315227        6.1882712862
 C         1.1681138642        3.0234291209        6.4932008796
 C         1.0999152614        4.0358840643        5.3223935656
 C         0.0897748681        5.1225063074        5.3648400683
 C         1.1205348870        3.6203412814        7.9664328334
 C         2.4927063046        2.2225059711        6.4124415682
 O        -0.0069968243        1.2599627114        5.3148194742
 O         1.8056222240        3.8894034793        4.3484657312
 C         0.0189481106        5.9587863679        4.0977365125
 C        -0.5865295830        5.1339698117        2.8952229194
 C        -0.7723736541        5.7244721890        1.4185696960
 C        -0.4313096463        4.5793136407        0.4190690194
 C        -0.7493347011        4.7482079273       -1.1066742612
 O        -1.1956219205        4.1121749841        3.2294576838
 O         0.0830247032        3.5513521609        0.8487443089
 C        -2.2611752377        6.1415267408        1.2751889700
 C         0.1424215017        7.0021247211        1.2330823973
 C         0.4669933333        4.5026277803       -2.0483350497
 C         0.1478869453        5.1917628814       -3.4335560715
 C         1.3762347076        5.7029349441       -4.2572732567
 C         2.3671730128        4.5271505290       -4.3082129450
 C         2.5593254254        3.7151710627       -5.5797191702
 C         0.8286801483        6.1360540295       -5.6121812492
 C         2.0255729273        6.9020570760       -3.4347224444
 O        -0.9226849223        5.4812858810       -3.8491860331
 O         2.9462594863        4.2243887746       -3.2690326149
 C         3.4608554855        2.4100467126       -5.5152624030
 C         2.7220103107        1.1205702074       -5.9071819085
 C         3.3494265428       -0.2336298334       -6.2697043016
 C         2.7010167587       -1.1762906402       -5.2313941337
 C         1.4434738502       -2.0280715997       -5.4133052028
 O         1.4776935176        1.1153449245       -5.8988047581
 O         3.2677679421       -1.3062872688       -4.1382510329
 C         2.9872170003       -0.7699527388       -7.7189841308
 C         4.9500594854       -0.1978019698       -6.1563952463
 C         0.9118440671       -2.5565878462       -4.0538285144
 C         0.4634074630       -4.0569750144       -4.1281647958
 C         0.1090322290       -4.8308358101       -2.6967874605
 C        -1.2958496817       -4.5495606733       -2.1506048019
 C        -2.6889829863       -4.7914279423       -2.9632311295
 C         0.2256875623       -6.2909186123       -3.0001079269
 C         1.0948033344       -4.3107384031       -1.6609764488
 O         0.5791880105       -4.6990833271       -5.1414292467
 O        -1.4059786880       -4.0593229441       -0.9942886149
 C        -2.9371071765       -6.2469894366       -3.4374693842
 C        -4.1645273813       -6.4418712987       -4.2729987365
 C        -4.8016527108       -7.8453679005       -4.4563447303
 C        -5.5495635882       -8.1695790424       -3.1312290132
 C        -5.3321814089       -9.6293833281       -2.5799242294
 O        -4.5888668576       -5.4793754288       -4.9184864606
 O        -6.3749919078       -7.4056944559       -2.6980143871
 C        -5.8937597917       -7.8374856473       -5.5511836049
 C        -3.6524567215       -8.8277143550       -4.8985749629
 H         0.6693317582       -1.9385499441        4.9903210382
 H         2.4878046702       -1.7978514258        4.6942837280
 H         1.5398622943       -0.5793409668        5.3890474377
 H        -2.4746384545       -1.2990292181        1.0147454393
 H        -2.4571352125       -2.3839850956        2.4633787028
 H         1.7798998406       -1.4155664700        0.4590213148
 H         0.5381775552       -0.1354277911        0.4346256924
 H        -0.0217201670       -1.7507974050        0.0316648482
 H        -0.3971502533       -3.3581499286        3.0187241923
 H         0.1861901027       -3.4157766560        1.3910225238
 H         1.2994826034       -3.4842334314        2.7157425476
 H        -3.1662693052        0.5770247878        2.4043387768
 H        -4.3839005152       -0.5374178516        2.3001601761
 H        -2.5873310027        0.3302715277        7.5787305492
 H        -1.6555969307        0.3174519182        6.0761430023
 H        -4.9417957098        1.4475039893        3.5921766404
 H        -6.2250060593        1.3035784265        4.8904034966
 H        -6.0566919796       -0.0522953618        3.7974307616
 H        -5.8013393710       -0.3517287717        6.8104070105
 H        -5.5608816293       -1.6792231647        5.8267208948
 H        -4.2253515960       -1.1040521998        6.9237685145
 H        -1.0578792201        2.0229003649        8.1237221866
 H        -1.9914943509        3.0988403006        7.0518982290
 H        -0.9120352694        4.6421523708        5.5266891134
 H         0.3162764615        5.7250213283        6.2151954705
 H         0.3006898986        4.1296418520        8.2458566708
 H         1.8803102154        4.4136058784        8.0681524780
 H         1.3480839182        2.8251753354        8.7071819531
 H         2.2510916628        1.3354195207        5.7194925994
 H         3.1206892680        2.7738107267        5.6739370475
 H         3.0352749185        2.0706675718        7.3885133513
 H        -0.6964598153        6.7492545202        4.2215388459
 H         1.0411141675        6.4019123576        3.7738277303
 H        -1.4773111464        3.9690646956       -1.4214092663
 H        -1.2020491881        5.7403568231       -1.3672195971
 H        -2.8104864758        5.1692652181        1.1908296892
 H        -2.5752946472        6.7080605082        0.4098432953
 H        -2.5641778821        6.7385300981        2.1108790236
 H        -0.0284329903        7.4497586096        0.2939292062
 H        -0.1395839172        7.6778509639        2.0517781942
 H         1.2219634135        6.8930933617        1.3123220220
 H         0.7693434338        3.4396548442       -2.0808022148
 H         1.2739571794        5.0111848716       -1.5674439922
 H         1.5661165167        3.3297539463       -5.8672726347
 H         2.8642932380        4.3907106919       -6.3586687360
 H         1.6282132094        6.2638152533       -6.3551922677
 H         0.3820414876        7.0918046293       -5.4142623184
 H         0.1121451479        5.3425060476       -5.9343916044
 H         2.4382696415        6.4762682197       -2.4877801127
 H         2.9679131084        7.2817142461       -3.9217396341
 H         1.3118672861        7.7015513246       -3.3140915782
 H         4.3684118152        2.5488082601       -5.9787832915
 H         3.5170967265        2.2890209002       -4.3986477750
 H         0.7832589478       -1.3574897758       -5.8869162713
 H         1.7071291287       -2.7996146344       -6.0475124249
 H         3.2625851894        0.0049830231       -8.4278644798
 H         1.9734469376       -0.9238164901       -8.0563844228
 H         3.6226352144       -1.5986249998       -8.0487896778
 H         5.1987436063        0.1103571664       -5.1895250042
 H         5.2728061454       -1.2460141787       -6.2758987907
 H         5.3236502022        0.4781004355       -6.9350031946
 H         0.1666163666       -1.8828148376       -3.7441709338
 H         1.7461720006       -2.5356194961       -3.2806101783
 H        -3.4677725214       -4.4696407148       -2.2658226684
 H        -2.6452950886       -4.1624849918       -3.7473294078
 H        -0.5512647645       -6.8120573366       -2.3958467086
 H         1.1738744076       -6.7364558652       -2.7874791929
 H         0.0168306384       -6.5052618203       -4.0879908365
 H         1.0401736153       -4.9089547847       -0.7949465412
 H         2.0946906829       -4.3046174529       -1.9965891233
 H         0.9374474242       -3.3596711009       -1.2247041796
 H        -2.2312294965       -6.5873282429       -4.1655961083
 H        -2.9620765948       -6.8807852867       -2.6081940062
 H        -5.7437934154       -9.7205520665       -1.6035561203
 H        -5.8835774834      -10.3333815184       -3.2170577521
 H        -4.2713599439       -9.7504954625       -2.4635086628
 H        -6.7876557444       -7.3595723884       -5.2049229255
 H        -6.1754809399       -8.8611220617       -5.7966245130
 H        -5.5058132477       -7.4733855913       -6.4396892402
 H        -4.0239673391       -9.8724368510       -5.0888516598
 H        -3.1598113983       -8.3906357584       -5.7415065536
 H        -2.8174012422       -8.8888406632       -4.1515890238
 Na        0.3916070811        2.3701893000        3.0339480744
