155

 C         2.6983361241       -1.9095719205        3.5916986327
 C         1.5036342894       -1.1329358821        3.0975647571
 C         0.5940496635       -1.6728665523        1.8142155143
 C        -0.8380467873       -1.0499651566        2.0539765284
 C        -1.8840124798       -1.8698073613        2.8812335027
 C         1.1894109260       -1.0243271840        0.5352582665
 C         0.4724159691       -3.2094804692        1.9332665236
 O         1.1411907045       -0.0523517547        3.5944418738
 O        -1.0515857199        0.0505802452        1.6578765809
 C        -3.2542925608       -1.2809584443        3.0390782447
 C        -3.5204324802       -0.9896646184        4.5740240135
 C        -4.4580147133        0.1345879404        5.1715690013
 C        -3.6624985665        1.3669783628        5.8556706304
 C        -2.5196434166        1.1052849050        6.8950973589
 O        -2.9071998499       -1.6328934329        5.4383719133
 O        -4.2034855394        2.4902377377        5.7931670478
 C        -5.5028419715        0.7032281563        4.1788099571
 C        -5.0949729490       -0.5621833501        6.4359071402
 C        -1.6402951659        2.4423502568        6.9945886086
 C        -0.5263994401        2.5288533733        5.8475648599
 C         0.8133002738        3.4086021275        6.0630014790
 C         1.0436838192        4.3284248192        4.8534252661
 C         0.3492995481        5.7510079727        4.7646981245
 C         0.9600982948        4.2534313902        7.3499251819
 C         1.9772379116        2.4218449676        6.1000091096
 O        -0.7119510403        1.8806887404        4.8786742903
 O         1.5505551707        3.8632783682        3.8527686969
 C        -0.0636150153        6.1674539668        3.3254844610
 C        -1.2419504602        5.2836474614        2.8979804651
 C        -1.8127475152        5.4834029977        1.4147725238
 C        -1.2560821188        4.3451660903        0.4881938048
 C        -1.3607353966        4.5070499766       -1.0311340032
 O        -1.6074937937        4.3640640137        3.5544963477
 O        -0.6464139325        3.3809529916        0.9604547639
 C        -3.2890981211        5.1142116740        1.4821166262
 C        -1.6262528155        6.8466848376        0.7676114901
 C         0.1214280760        4.6847545952       -1.6262375709
 C         0.1556835678        5.1184868154       -3.1058753558
 C         1.6616695717        5.3516264257       -3.6712888329
 C         2.4735774192        3.9731231336       -3.6650706338
 C         3.2352743153        3.5782673121       -4.9946599180
 C         1.6053002884        5.9675038321       -5.1562595610
 C         2.5653812535        6.4045774589       -2.8987881794
 O        -0.8406349524        5.2325276015       -3.7585294894
 O         2.6595026258        3.4367140496       -2.5792870198
 C         3.9423771612        2.2255979753       -4.9807009216
 C         3.4094286147        1.2039340206       -5.9903168046
 C         3.4886989642       -0.3862277451       -5.5482446004
 C         2.2863963950       -0.4806197666       -4.5599042406
 C         1.0364051989       -1.4192641947       -4.7717280502
 O         2.9027547981        1.5332287101       -7.0958383023
 O         2.1796736138        0.2205914739       -3.5685216989
 C         3.4939698463       -1.2144521258       -6.7798215903
 C         4.8040557044       -0.6413649215       -4.6577259520
 C         1.0035303630       -2.2980769529       -3.5153909858
 C         0.9312058132       -3.7733291319       -3.8083087383
 C         0.3237228088       -4.6559544067       -2.6997738273
 C        -1.2659739452       -4.4070153545       -2.7993483769
 C        -1.9314469234       -4.6856774560       -4.2122930188
 C         0.6232736773       -6.1051927535       -3.2528666938
 C         0.8634102667       -4.4802510378       -1.2777224680
 O         1.3186091336       -4.2463635683       -4.8465661736
 O        -1.8659923381       -3.8120300012       -1.8777394997
 C        -2.3475306099       -6.1651736966       -4.1639462532
 C        -3.7704745133       -6.3389693375       -4.7312218610
 C        -4.4490587775       -7.7977309816       -4.7380740839
 C        -4.7739610065       -8.1427693652       -3.1973633487
 C        -6.0631220125       -8.9739192970       -3.0319984454
 O        -4.3220700540       -5.3784439513       -5.2646411693
 O        -4.0057235042       -7.7297501823       -2.3325171266
 C        -5.7560202436       -7.7329411140       -5.5909582221
 C        -3.4573059176       -8.8727208689       -5.2218361996
 H         2.5220631738       -3.0024954609        3.5126458944
 H         3.5873983594       -1.7516861104        3.0288682043
 H         2.8708024470       -1.5142977358        4.5959281512
 H        -2.0875281256       -2.8071441142        2.2145117605
 H        -1.4283063071       -2.2295226549        3.8036524549
 H         2.2555572523       -1.0831484329        0.3262158769
 H         0.9784073322        0.0244782670        0.5759105950
 H         0.5066598693       -1.4690617772       -0.2927685400
 H         0.0515466770       -3.4133396379        2.9296915370
 H        -0.3446016234       -3.6219601554        1.3386619079
 H         1.3483846675       -3.7432202505        1.7681334376
 H        -3.1887991894       -0.4234184405        2.4139478678
 H        -4.0007710633       -1.9308418689        2.6871081900
 H        -3.0549267405        1.0041108187        7.8840025365
 H        -1.9413768505        0.2243837539        6.6887290682
 H        -5.0832836987        1.5877232853        3.6372116879
 H        -6.3338620986        1.1546649628        4.7369119100
 H        -5.7986031748       -0.0658460359        3.5213161792
 H        -5.6079958673        0.1409388804        7.1273106673
 H        -5.6045130238       -1.4503061700        6.1876907766
 H        -4.3175047905       -1.0597359988        6.9354348404
 H        -1.1989604194        2.5929949763        7.9934275716
 H        -2.2357781866        3.3053338989        6.7936669085
 H        -0.4754179134        5.8211941743        5.4294675660
 H         1.0973908523        6.4393890265        5.2242752532
 H         0.3048583596        5.0517431601        7.4410144301
 H         1.9501244791        4.7603928586        7.4378225256
 H         0.9865346616        3.6116803113        8.3174971951
 H         1.6112769267        1.4888181595        6.6654496580
 H         2.2731078594        2.1934749863        5.0630267962
 H         2.9631487286        2.7396213798        6.5007590659
 H        -0.0721600363        7.3301049810        3.1417058417
 H         0.7516554932        5.9806121197        2.6539752021
 H        -1.9637972626        3.7052862668       -1.4753524331
 H        -1.9281751547        5.3902924861       -1.3206051139
 H        -3.4580594021        4.1264214390        1.8887063668
 H        -3.7109845057        5.2700149650        0.5354969328
 H        -3.8675387302        5.7131605051        2.1950671873
 H        -1.6325943445        6.8468835498       -0.3183549168
 H        -2.3901049205        7.6066760846        1.1088808654
 H        -0.6179198184        7.1276493451        1.0295010091
 H         0.5414736411        3.6824990691       -1.4979709923
 H         0.7606589179        5.3126070750       -0.9775193024
 H         2.4409601370        3.5001343181       -5.7300031835
 H         3.8756169665        4.4455628613       -5.2464361008
 H         2.6106360007        6.2610820349       -5.5309720804
 H         1.0013169760        6.8682934880       -5.0059746717
 H         1.0871119463        5.2632980441       -5.7927903073
 H         2.9621750250        5.9707955656       -1.9969586504
 H         3.4141080122        6.7792054765       -3.5374402451
 H         1.8733038911        7.2161669518       -2.6163870793
 H         4.9885624743        2.3969818212       -5.3265124317
 H         4.0675809070        1.8303509446       -4.0386175591
 H         0.1924249850       -0.8510379318       -4.6614368730
 H         0.9991434989       -1.9649086082       -5.6765196697
 H         4.4817574006       -0.9813218570       -7.2766365818
 H         2.5751505889       -1.0387628047       -7.3218476142
 H         3.5665210259       -2.2998561658       -6.6422343658
 H         4.7476042776        0.1027843020       -3.8966943417
 H         4.7427478397       -1.6315579483       -4.3222151973
 H         5.6548245563       -0.6129495325       -5.2962690894
 H         0.1885095062       -2.1621426307       -2.7479348345
 H         1.9221519469       -2.2052743730       -2.9973011772
 H        -2.7551896697       -4.0130921852       -4.2609303778
 H        -1.2815182281       -4.4603745014       -5.0063139650
 H         0.1427371588       -6.9096683811       -2.6230392992
 H         1.6908659674       -6.2741771651       -3.0592554588
 H         0.4834752448       -6.3327096445       -4.3147240449
 H         0.4092537418       -5.1497700665       -0.5974220747
 H         1.8861353372       -4.7444504993       -1.1524457560
 H         0.7292857467       -3.5111912953       -0.9111694140
 H        -1.6275321616       -6.7510041884       -4.5995325528
 H        -2.5041288494       -6.5781110666       -3.1797313040
 H        -6.7857942361       -8.2753725369       -3.3480420686
 H        -5.9303152574       -9.9309570422       -3.5668668743
 H        -6.2162683289       -9.2434882640       -1.9839061166
 H        -6.5559182364       -7.2731259388       -5.0016592408
 H        -6.1264106398       -8.7146415668       -5.8801556209
 H        -5.7402137418       -7.0214204078       -6.4377088906
 H        -4.0154392999       -9.8300876436       -5.2398373047
 H        -3.0842828036       -8.5318833125       -6.2301961440
 H        -2.6893039141       -8.9461243925       -4.4699410367
 Na       -0.0606489142        2.2668058001        2.8973369163
