155

 C         2.6808610423       -1.2096738940        3.1446728655
 C         1.4068431953       -0.4813050404        2.6742423737
 C         0.3023259747       -1.3612688179        1.7931087980
 C        -1.1742663198       -0.9482283511        2.3081072323
 C        -1.8722267867       -1.8266125672        3.4131452561
 C         0.3068552135       -0.9052809086        0.3939598213
 C         0.5143611150       -2.8572754528        1.7379310551
 O         1.2084685598        0.6789504988        2.9482220589
 O        -1.6542601315        0.0893519675        1.8651984304
 C        -3.1289043395       -1.0138614604        3.8907739894
 C        -3.4124447007       -0.9263281003        5.3540324951
 C        -4.5974172197       -0.0389940841        5.8737118939
 C        -3.9042845003        1.3964855299        6.0651291938
 C        -2.9915483226        1.5503675922        7.3021999698
 O        -2.6405418496       -1.2344827048        6.2092360511
 O        -4.2216174309        2.3417781910        5.3980961497
 C        -5.6843501908        0.1989235780        4.8555148445
 C        -5.0747913403       -0.7872447534        7.0864408309
 C        -2.1129800346        2.8558564088        7.1842441721
 C        -0.9726332792        2.9149138324        6.1020071089
 C         0.2677245972        3.8013846765        6.1180934466
 C         0.2601513757        4.3782211602        4.6458599691
 C        -0.4824060284        5.6972788695        4.4073302041
 C         0.3641216916        4.8912003752        7.1652931615
 C         1.4456186350        2.8657063323        6.2321550865
 O        -1.2026257143        2.2539669791        5.0558123139
 O         0.8130164935        3.7824851231        3.7642320247
 C        -1.1528084620        5.8192994744        2.9596123653
 C        -2.0127811901        4.5859021233        2.5969091803
 C        -2.3854019605        4.5027890875        1.0317276546
 C        -1.2545341165        4.0244186485        0.0985504189
 C        -1.1286526238        4.2071074721       -1.4537892721
 O        -2.4520970052        3.8234156361        3.4136900633
 O        -0.3166252082        3.3785794366        0.5431793138
 C        -3.4440141202        3.4269700472        0.7928208723
 C        -2.7821837779        5.9132619458        0.5862097937
 C         0.1501072503        5.0498538818       -1.6774187195
 C         0.6284661986        5.1318593411       -3.1480290328
 C         2.1179887760        5.7292560479       -3.4575313036
 C         3.1108816457        4.5149695186       -3.1760215527
 C         3.2929700203        3.4713377597       -4.3357956978
 C         2.0857402134        6.0920842177       -4.9360159493
 C         2.2841548452        7.0427186726       -2.4949663176
 O        -0.0556795521        4.7846376139       -4.0816807762
 O         3.6887555067        4.4348529700       -2.1466095529
 C         3.9661831661        2.2428765762       -3.8401207699
 C         3.9842544937        1.1395030860       -5.0033770932
 C         4.0240363451       -0.3561673527       -4.7517896466
 C         2.5721197055       -0.6635206055       -4.0240928100
 C         1.2480604196       -0.8870720976       -4.8077664009
 O         3.7902048498        1.4853300254       -6.1162736722
 O         2.5491814002       -0.5291672569       -2.8342773768
 C         4.1402237194       -1.1599229346       -6.0662319163
 C         5.1094466933       -0.8193955699       -3.8098629064
 C         0.6118115381       -2.1798934183       -4.3400543067
 C         1.5457215636       -3.3293057438       -4.0218986100
 C         0.8386797597       -4.7091378355       -3.6891253150
 C        -0.7122762903       -4.6353715353       -3.5974798374
 C        -1.5995363611       -5.1001326637       -4.6970499113
 C         1.4085721452       -5.7864890848       -4.5158901979
 C         1.2506508210       -4.9411605992       -2.1509354615
 O         2.7809968714       -3.2132873728       -3.8598030215
 O        -1.1334829885       -4.1755649642       -2.5236029017
 C        -2.3072734367       -6.3894498061       -4.3465390653
 C        -3.7286148803       -6.5483645289       -5.0699107243
 C        -4.4827277700       -7.9282431290       -5.0317319015
 C        -4.6389958411       -8.6620423091       -3.6397937933
 C        -5.0036028405       -7.6605635105       -2.4443260436
 O        -4.1942457885       -5.5607419244       -5.6091447184
 O        -4.7891616103       -9.8581450216       -3.5621407644
 C        -5.8669416656       -7.7055775752       -5.6236370877
 C        -3.7055593152       -8.9409894098       -5.9625825379
 H         2.4692645697       -2.0987200274        3.7696444836
 H         3.3184792124       -1.5238626113        2.2240063042
 H         3.3153336496       -0.4919135613        3.7428277252
 H        -2.0685861954       -2.8054205283        2.8883801017
 H        -1.1832619818       -2.0281227143        4.1726331023
 H         1.2876270658       -0.9881552709       -0.0772462880
 H        -0.2176481378        0.0964447134        0.3178437628
 H        -0.1912159708       -1.5622087912       -0.2197201919
 H         0.5389223347       -3.2823082986        2.7258404015
 H        -0.2935003253       -3.2791146816        1.2000994273
 H         1.4947377473       -3.1378805071        1.1929593486
 H        -3.1095073244        0.0798025388        3.5478457306
 H        -4.0422422836       -1.4643107476        3.3852397387
 H        -3.6382664083        1.6661011360        8.2195048124
 H        -2.5220041331        0.6190002454        7.4379940555
 H        -5.4915536912        1.0046548068        4.2037738623
 H        -6.6752542112        0.3243791543        5.3198522356
 H        -5.6020682798       -0.5514095820        4.0640132314
 H        -5.6018589994       -0.2407366590        7.8055115456
 H        -5.7051224946       -1.6591762303        6.8700870003
 H        -4.2401833221       -1.2714580037        7.6506233407
 H        -1.7040882509        3.2241448548        8.1021998331
 H        -2.9514049748        3.5512284072        6.7730008886
 H        -1.3410627480        5.6485937975        5.0784712969
 H         0.1895435596        6.5317279742        4.7443585043
 H        -0.6399862969        5.2788148803        7.2838375689
 H         1.1478972494        5.5791535116        6.9506799920
 H         0.7307576513        4.5063139613        8.0070414317
 H         1.6645792114        2.6097360984        7.2708041074
 H         1.3058237205        1.9247642131        5.6786055951
 H         2.3924257355        3.4201820261        5.9099194130
 H        -1.7744700804        6.6932076565        3.0034965602
 H        -0.2466162794        5.8967704926        2.2575390290
 H        -0.9718223302        3.2069947171       -1.8205173598
 H        -2.0912905370        4.5542027172       -1.8395392746
 H        -2.9411706404        2.4475143505        0.8742760441
 H        -3.8000910025        3.3577829683       -0.2546341887
 H        -4.1664210029        3.4195581954        1.5908417424
 H        -2.8795194242        5.8846829247       -0.4721372349
 H        -3.7246149097        6.2989011826        0.9896877720
 H        -1.9129903852        6.5532960202        0.7981876589
 H         0.9498178623        4.7274699236       -1.0386156505
 H        -0.0404533192        6.0778958788       -1.4376397757
 H         2.2850600944        3.2865818668       -4.6984351493
 H         3.8831997234        3.7736798500       -5.1862074802
 H         3.0364459111        6.5467064707       -5.2865289746
 H         1.2310910294        6.7636516201       -5.1632503659
 H         1.8147103263        5.2226559382       -5.6206777642
 H         2.1352342994        6.7611291011       -1.3835875798
 H         3.3024048981        7.4574611675       -2.6955823908
 H         1.4584195052        7.7943096279       -2.6017927224
 H         4.9651320803        2.5962679627       -3.6492830968
 H         3.5322681705        1.7978802166       -2.8486310370
 H         0.6009175776        0.0823191542       -4.6426948523
 H         1.3960153477       -0.8969130937       -5.9171143954
 H         5.1543107808       -1.0104099052       -6.2622003748
 H         3.5782209689       -0.8072380411       -6.9339200144
 H         3.9428319531       -2.2219437067       -5.9675539786
 H         4.9536974147       -0.5142676804       -2.8100805074
 H         5.2004540028       -1.9432949036       -3.8089580501
 H         6.0229515372       -0.2965880512       -4.1328040057
 H        -0.0701828935       -2.4891856643       -5.1280060843
 H         0.0209083584       -2.0497987311       -3.3838992395
 H        -2.5322502060       -4.4156331588       -4.8178535296
 H        -1.0583059499       -5.1245112596       -5.6328640602
 H         1.0174748472       -6.7717719995       -4.2098612407
 H         2.4886959656       -5.8216440259       -4.5271536984
 H         0.9537405832       -5.7216329008       -5.5470958071
 H         1.0797313147       -5.9498773222       -1.9044511355
 H         2.3093578406       -4.8547224499       -2.0623988582
 H         0.7750369345       -4.2045022800       -1.5160047299
 H        -1.7095416479       -7.3630148773       -4.3084083771
 H        -2.7027840894       -6.1186036792       -3.2863267464
 H        -4.5482999938       -6.6380752990       -2.4485346746
 H        -6.0917363191       -7.5554395000       -2.4494061272
 H        -4.5860964306       -8.1137773896       -1.5448808623
 H        -6.2906313711       -6.7604030672       -5.3617998062
 H        -6.5713260178       -8.5174762673       -5.4875311342
 H        -5.7087671145       -7.6118739302       -6.6402393103
 H        -4.1824279144       -9.9668521437       -5.8914961134
 H        -3.8022640377       -8.6357565269       -6.9665306177
 H        -2.6894570126       -8.9959467684       -5.5001757653
 Na       -0.4504177420        2.1934025116        2.4046625654
