155

 C         1.8474598959       -1.7253248230        2.7531994516
 C         0.8391598068       -0.7258718352        2.2900160140
 C        -0.5528045913       -1.2820405140        1.7264097392
 C        -1.6176510409       -0.9230921248        2.7892478572
 C        -2.4692052812       -1.9814528928        3.3545118050
 C        -0.9986249183       -0.4099455483        0.5133096179
 C        -0.5454289714       -2.7513147962        1.3911011260
 O         0.9632439567        0.5034342338        2.4426649781
 O        -1.7447135490        0.2579720661        3.1811431748
 C        -3.5306447594       -1.4909702545        4.3738092923
 C        -3.0071875365       -1.2445234782        5.7459335586
 C        -3.9983140057       -0.5481924079        6.7355996913
 C        -3.5435375837        1.0512313584        6.8847591240
 C        -2.1306611132        1.3252232991        7.3992646508
 O        -1.8764703468       -1.4337929354        6.0959247144
 O        -4.4340341385        1.9116035314        6.8156098190
 C        -5.4821326991       -0.5963974164        6.4506020624
 C        -3.6999759034       -1.1344234485        8.1488232776
 C        -1.7394083391        2.7749484890        7.3818310058
 C        -1.2602590155        3.2589176558        5.9581812977
 C        -1.5728675531        4.8115144659        5.6777512382
 C        -1.8917353685        4.8882526882        4.0781932942
 C        -3.2410317838        5.3340857456        3.5278002088
 C        -2.7219144825        5.4501955249        6.4822077904
 C        -0.2237761761        5.6061387085        6.0956073415
 O        -0.6902709090        2.4608433655        5.2377296294
 O        -0.9530962393        4.7431279916        3.2993553903
 C        -3.1333001537        5.5135891070        2.0085285630
 C        -3.0205485190        4.1961311496        1.2595598030
 C        -2.4206074703        4.2225595477       -0.3207636248
 C        -0.9741017181        3.7573713842       -0.3329339212
 C        -0.1200256439        3.9057788280       -1.6693939095
 O        -3.4338095810        3.1309898137        1.7152122489
 O        -0.5191331947        3.0877552775        0.5679927610
 C        -3.2581377033        3.1781175748       -1.1167359190
 C        -2.6327384287        5.7196717312       -0.8941444971
 C         0.9730501660        5.0019496625       -1.5246366548
 C         1.1750607778        5.7971002556       -2.8321463921
 C         2.5973553243        6.3563685324       -3.1400455351
 C         3.5988356636        5.2132743011       -2.7886190809
 C         3.5105451553        3.8340234079       -3.6134967282
 C         2.8391221136        6.8149238549       -4.5715008641
 C         2.6950929995        7.5205890062       -2.2118142197
 O         0.1921484908        5.9895854508       -3.4812960440
 O         4.5311781495        5.4011978075       -2.0400483440
 C         3.4915195737        2.6039228237       -2.6820294605
 C         3.8307890820        1.2917077680       -3.3999577361
 C         4.3669764669        0.0176222289       -2.6601936685
 C         3.3396380801       -1.1689539664       -2.8839938110
 C         3.7456574856       -2.4083548440       -3.7175351578
 O         3.6272152952        1.2979457939       -4.6263355581
 O         2.1805528675       -0.9840463848       -2.5205599290
 C         5.7074231720       -0.4216808926       -3.4038228602
 C         4.4788173555        0.2461414351       -1.1795010027
 C         2.6040849423       -3.4984368049       -3.7046374015
 C         2.2541786037       -4.2420570828       -5.0158063468
 C         1.5271158061       -5.6917205902       -4.7822937608
 C         0.1398008628       -5.4057192880       -4.0973930107
 C        -1.1359713989       -5.1328228068       -4.9169509762
 C         1.3141379903       -6.3613669061       -6.1601012367
 C         2.5097527959       -6.5522605516       -3.9067502427
 O         2.4386409720       -3.8275441820       -6.1075733348
 O         0.0492795841       -5.3515693549       -2.8920884382
 C        -1.8656187610       -6.5037470170       -5.1851920800
 C        -3.3475516349       -6.2812552154       -5.6273096439
 C        -4.2288686004       -7.5790254634       -5.5725312918
 C        -4.3915832748       -7.9209601496       -4.0879448734
 C        -5.7256053042       -8.4103168220       -3.5497616815
 O        -3.8282505144       -5.2681670375       -5.9854234343
 O        -3.4581675175       -8.1186410026       -3.3035257010
 C        -5.5161417232       -7.4257373437       -6.2887890568
 C        -3.4134444418       -8.8538049663       -6.0477343894
 H         1.4990567708       -2.1144883346        3.7379538179
 H         1.8800866773       -2.6132825268        2.2198317788
 H         2.7594297836       -1.1393929141        2.8870047615
 H        -3.1039313429       -2.4157578132        2.5956191537
 H        -1.7893063851       -2.7142871262        3.8218174612
 H        -0.1821100828       -0.5490547322       -0.2329808320
 H        -1.2087439597        0.6195497577        0.7708446611
 H        -1.8600952508       -0.7802884748       -0.0030664023
 H        -0.2075998898       -3.2945942712        2.2894910857
 H        -1.4593570445       -3.2441235751        1.0641212237
 H         0.1829010703       -2.8319058652        0.5920368546
 H        -3.8683464287       -0.5152328625        4.0280169526
 H        -4.3716165301       -2.1485101985        4.4008688939
 H        -2.2270477130        1.1713651459        8.5035809655
 H        -1.3830796246        0.7011793904        7.0701465713
 H        -5.7359428473        0.1101852556        5.6759554329
 H        -6.0593252900       -0.2754317149        7.3621692639
 H        -5.7488842538       -1.5362209706        5.8964349101
 H        -4.1536940970       -0.4949754092        8.9480045361
 H        -4.1800637344       -2.1786293765        8.2512876595
 H        -2.6314280598       -1.4094311101        8.3978896314
 H        -0.8003090159        2.8157186411        8.0316682684
 H        -2.3778857157        3.4199323821        7.9072818019
 H        -3.9837862058        4.6089089880        3.7384803731
 H        -3.6422915925        6.2854766939        3.9906567038
 H        -3.6830252166        5.0156486539        6.1863754714
 H        -2.7506014658        6.4636822476        6.3185811290
 H        -2.4460616672        5.3475933444        7.6302376727
 H         0.0910940446        6.3724783841        5.3613865621
 H        -0.4383805758        6.1565004255        6.9674688095
 H         0.5397268449        4.9310124971        6.3800056290
 H        -3.9692897719        6.0654762587        1.4833843488
 H        -2.2083289552        6.0725552913        1.8110038868
 H         0.5545631378        3.0613112178       -1.8161952434
 H        -0.6443725358        4.1068545037       -2.5941324531
 H        -2.7541716719        2.2111056588       -0.9177223091
 H        -3.1666052352        3.3943339997       -2.2232909332
 H        -4.2441022291        2.9881865939       -0.6935817789
 H        -2.0549727904        5.9115566262       -1.7696462468
 H        -3.6959707145        5.8862312969       -1.1886968198
 H        -2.3886028148        6.5846279986       -0.2797618215
 H         1.8557319775        4.5233713189       -1.0915634771
 H         0.6611976979        5.8128726223       -0.7774277587
 H         2.6526482627        3.7608258509       -4.3072702434
 H         4.4128444805        3.9396059057       -4.1780761969
 H         3.5487881940        7.5906378174       -4.5633585097
 H         2.0079749592        7.2142026753       -5.0556180265
 H         3.1638410679        6.0613987126       -5.2757455156
 H         2.4370435167        7.3328672353       -1.1890906655
 H         3.6995687905        7.8506936768       -2.2000949125
 H         1.9953393586        8.3213931033       -2.4658138973
 H         4.0444844634        2.7065076608       -1.7093679113
 H         2.5179477582        2.4688093185       -2.2321926749
 H         3.6016898590       -2.0026484688       -4.7822895976
 H         4.7368118220       -2.8258012601       -3.5904474271
 H         6.3999458245        0.3768475012       -3.4345766367
 H         5.4343202337       -0.9049349396       -4.3818808243
 H         6.1287385162       -1.2971714910       -2.8698985633
 H         3.4923989355        0.2737448022       -0.7358552734
 H         4.9580118470       -0.6246011925       -0.6602184736
 H         5.0723106533        1.1396476350       -0.8443472982
 H         1.6813671328       -2.9978394202       -3.3359644120
 H         2.8677240987       -4.1948800861       -2.9883599103
 H        -1.8396788013       -4.6058009187       -4.2282883228
 H        -1.1609830306       -4.6066266805       -5.8560011598
 H         0.9522440494       -7.3858765602       -6.0671196412
 H         2.2462617039       -6.3472763163       -6.6885472356
 H         0.5406359180       -5.8081961508       -6.7296445102
 H         2.2546113822       -7.5976884666       -4.1495659992
 H         3.4324132218       -6.5510029809       -4.5142141924
 H         2.6462128196       -6.1970889748       -2.8448045848
 H        -1.2596981726       -7.1362023552       -5.9176044355
 H        -1.8280438777       -7.1710400881       -4.2637807439
 H        -5.9854963759       -9.2715996367       -4.2120194992
 H        -5.5889392756       -8.9189010117       -2.6579429717
 H        -6.5246259299       -7.7311533816       -3.6843142463
 H        -6.1912568986       -6.7379915616       -5.8031134183
 H        -5.9581221075       -8.4038345339       -6.3846443696
 H        -5.2876188060       -7.0709122095       -7.2535777278
 H        -3.8775730040       -9.8482201758       -5.9193782572
 H        -3.1487070596       -8.7962847829       -7.0403760119
 H        -2.5099195105       -9.0400776435       -5.4697845016
 Na       -0.7433842446        2.3280049339        2.7612982196
