155

 C         1.3704261882       -1.0899943874        2.9919632500
 C         0.1370586745       -0.3185061164        2.4608039089
 C        -1.1458935566       -1.0152747373        1.7171806532
 C        -2.2789545115       -0.8229764181        2.8210233677
 C        -2.7865626292       -2.0432049604        3.6466306408
 C        -1.4779856528       -0.1375202415        0.5196619762
 C        -0.8936979565       -2.4850386620        1.3630193518
 O         0.1655910596        0.8572341051        2.5738630999
 O        -2.7289954444        0.2688641316        3.0991479596
 C        -3.5226579160       -1.6493648498        4.8645215952
 C        -2.6425190536       -1.1524756398        6.0516102695
 C        -3.3531286249       -0.5569543890        7.3378007474
 C        -3.1123990411        0.9749966904        7.2384538334
 C        -1.8155485679        1.4227688515        7.8746591264
 O        -1.4162265290       -1.3021143468        5.9278970282
 O        -3.6760688127        1.6893474735        6.5013269170
 C        -4.8081871164       -0.8047557443        7.3828309076
 C        -2.7108576216       -1.2845253573        8.5916204224
 C        -1.3729734009        2.8128179336        7.4103744313
 C        -1.8567024568        3.0208686390        5.9379436673
 C        -2.5004651125        4.4112789791        5.6116874668
 C        -2.4551754734        4.7166559625        3.9055949989
 C        -3.7646272674        4.7822553157        3.0671288713
 C        -3.9516810565        4.4458766555        6.0375473842
 C        -1.8181903878        5.5795003480        6.3294227864
 O        -1.5671598241        2.1930165814        5.0435021900
 O        -1.3746056331        4.9389010417        3.4188782619
 C        -3.6307304630        5.2333523637        1.5619231477
 C        -3.1113529241        4.0127145800        0.7084560062
 C        -2.5881228671        4.1320579679       -0.7375779478
 C        -0.9981002527        4.0105409203       -0.8499151812
 C        -0.2907842106        4.3266212839       -2.2157104084
 O        -3.1772336516        2.8667819183        1.2367523937
 O        -0.3544928914        3.5130059548        0.0569569706
 C        -3.0775809131        2.9324713466       -1.6174402937
 C        -3.0440894832        5.5476810674       -1.2895262823
 C         0.6393531673        5.5340286181       -1.9623118731
 C         1.4563077917        5.8988860475       -3.1910045752
 C         3.0419386097        6.2391686762       -3.0468244388
 C         3.7937303747        5.0542425244       -2.3646678100
 C         3.4582043735        3.6460384199       -2.9407967577
 C         3.5911988510        6.4877269747       -4.5342249701
 C         3.0740592925        7.5342890395       -2.1937786291
 O         0.9284250248        5.8903295640       -4.2972356401
 O         4.5104977429        5.1700263255       -1.3893351084
 C         4.4783375008        2.4829542519       -2.7730961682
 C         3.8077840411        1.1053383923       -3.0297720914
 C         4.3504337932       -0.1530505810       -2.2178262606
 C         3.6501902202       -1.5438002993       -2.6031827234
 C         4.3617011277       -2.6631079916       -3.3154641376
 O         2.9689159405        1.0508861322       -3.8534027872
 O         2.4922651134       -1.6834858084       -2.2523621644
 C         5.8987192989       -0.0604674387       -2.7501692352
 C         4.1112029079       -0.0115178952       -0.7531683986
 C         3.5111552717       -3.8808651337       -3.5478277271
 C         2.6015509848       -3.9474943050       -4.8739267550
 C         1.9866615475       -5.2500021645       -5.2022430229
 C         0.6179492676       -5.3394835734       -4.2640175926
 C        -0.8506714641       -5.1843832671       -4.7362323141
 C         1.7183332038       -5.3189626919       -6.6523359218
 C         2.8571228255       -6.4362022139       -4.7750349592
 O         2.4209566608       -2.8760143813       -5.5014896967
 O         0.8304555136       -5.4390832525       -3.0781446472
 C        -1.5853579015       -6.5534398206       -4.8268030194
 C        -2.8734419020       -6.3994457762       -5.5181580128
 C        -3.9557644858       -7.5985360882       -5.6521742722
 C        -4.6405850200       -7.9248971005       -4.2216701480
 C        -5.8002465051       -8.8667276952       -4.2677701801
 O        -3.2051855702       -5.3164768030       -5.9939664866
 O        -4.2962518295       -7.2839688998       -3.2590358604
 C        -4.9535689572       -7.0629778681       -6.6249306781
 C        -3.1471141135       -8.7582505508       -6.1953755365
 H         2.1900095786       -0.7641291543        2.3365856257
 H         1.5528879985       -0.7733266087        4.0140703095
 H         1.3049568079       -2.1313740848        2.8747366671
 H        -3.4102347893       -2.8422724500        3.0582744447
 H        -1.9032176021       -2.5410919627        4.0798488956
 H        -0.5592318512       -0.0865556679        0.0015060089
 H        -1.7239660059        0.8793655831        0.6947453658
 H        -2.2620785757       -0.6340595069       -0.0790499949
 H        -0.5567791144       -3.0629522345        2.2520180859
 H        -1.7904170307       -2.9170459514        0.8276111845
 H        -0.1303951814       -2.5785158848        0.6694420907
 H        -4.2764763928       -0.8910116296        4.5606149848
 H        -4.1062754722       -2.4554730669        5.2388862619
 H        -1.6816984310        1.2836251192        8.9975889495
 H        -1.1181526101        0.6947859337        7.5933231718
 H        -5.1259060701       -0.3437527733        6.4800791786
 H        -5.2943447616       -0.4476300230        8.2617041250
 H        -4.9953350212       -1.8592686826        7.4807953815
 H        -2.7345348256       -0.5837568337        9.4155789713
 H        -3.3088476626       -2.1256973135        8.7863759831
 H        -1.7327600118       -1.5214859301        8.4144045828
 H        -0.2729618445        2.8158955394        7.5330225906
 H        -1.7411153210        3.6266473987        8.0023711057
 H        -4.1097985118        3.8113329154        3.1063667471
 H        -4.5586710433        5.4702010389        3.5092904511
 H        -4.6881346200        3.7552779065        5.5595776976
 H        -4.4692426482        5.4992342860        6.1173301760
 H        -4.0417917638        4.1629502896        7.0507699066
 H        -1.7998143480        6.4465230653        5.7249754165
 H        -2.4452147505        5.8099437527        7.2638941956
 H        -0.7856576293        5.3624692218        6.6609934628
 H        -4.5926058422        5.3553711897        1.1269818705
 H        -2.9274740948        6.0480967005        1.4506091290
 H         0.4013113187        3.5044261622       -2.4902073457
 H        -0.9013275710        4.5359277505       -3.0945308618
 H        -2.1920511921        2.3512320717       -1.6347863127
 H        -3.2628002759        3.2852698831       -2.6181210597
 H        -3.9602630618        2.4838435735       -1.2278170988
 H        -2.5476335755        5.8062212441       -2.2387576712
 H        -4.0787857244        5.5690091588       -1.5526240537
 H        -2.7861376269        6.3260215316       -0.5622894329
 H         1.0284665314        5.2827221779       -0.9763567137
 H        -0.0139214488        6.4358691090       -1.7465873012
 H         2.4251566126        3.4272379724       -2.4911007874
 H         3.2553950673        3.7791086552       -3.9946474539
 H         2.7634819632        6.1898449024       -5.2781832577
 H         4.5207552529        5.8771589026       -4.8046122603
 H         3.6981219668        7.5689215560       -4.6268438971
 H         2.4263710782        7.4365880682       -1.2934872994
 H         4.1234189030        7.7959011579       -1.8909301391
 H         2.7490476590        8.4032548331       -2.9070085763
 H         5.2696168761        2.5894869607       -3.5323092823
 H         4.8060314244        2.5212629860       -1.7039097325
 H         4.7755485579       -2.3153622245       -4.2443818488
 H         5.2479829502       -2.9063343567       -2.8216843975
 H         6.4480283666        0.7845001199       -2.3379632553
 H         5.7290713646        0.1559491509       -3.7701453985
 H         6.4890033670       -0.9515264762       -2.5407934086
 H         3.0466170795       -0.1629645338       -0.4849250493
 H         4.6456930593       -0.7512663829       -0.2233058290
 H         4.3562851785        0.9183752897       -0.3626347979
 H         2.7742205801       -3.9219376047       -2.6994983332
 H         4.1041553765       -4.7712646787       -3.5970240213
 H        -1.2720913912       -4.5823124559       -3.9986491279
 H        -0.9481741757       -4.6914256122       -5.6626987495
 H         1.2533666578       -6.2562845657       -6.9014907858
 H         2.5836457182       -5.3622586107       -7.3414474078
 H         1.0798152412       -4.5098251325       -7.0572898125
 H         2.5014835849       -7.3022504261       -5.2730916702
 H         3.8498991005       -6.1625126105       -5.0224082050
 H         2.8009716378       -6.6313629222       -3.7415568252
 H        -0.8910377812       -7.2408664146       -5.4379278875
 H        -1.7997619771       -6.9912004029       -3.9262111652
 H        -5.3514923467       -9.8995851225       -4.2119351502
 H        -6.4699222008       -8.7044482925       -3.3677035710
 H        -6.4040784549       -8.8772993582       -5.1620656797
 H        -5.2761036820       -6.1319959844       -6.1404933371
 H        -5.7867537758       -7.7634275671       -6.7107661917
 H        -4.5319893660       -6.7973711805       -7.6598946075
 H        -3.7848188654       -9.5790888182       -6.5681603836
 H        -2.4261981347       -8.6577699695       -7.0161347106
 H        -2.4340289841       -9.1986930653       -5.4485699332
 Na       -1.4357047879        2.3743333942        2.6598322353
