155

 C         1.3180821579       -1.1336870001        2.8833138561
 C         0.0814271959       -0.2726700202        2.5001228221
 C        -1.1134387105       -1.0342828418        1.8072256905
 C        -2.3373061392       -0.8102084867        2.7914568547
 C        -2.7396336459       -1.9684986433        3.6122583256
 C        -1.3803808659       -0.1618014907        0.4985241149
 C        -1.0042854862       -2.5156653423        1.3560949480
 O         0.0404919267        0.9793030966        2.6259428160
 O        -2.8596102743        0.2916926626        2.9239840680
 C        -3.6130082046       -1.5594786202        4.9160799544
 C        -2.6521253186       -1.3242795947        6.1303169555
 C        -3.2327443725       -0.8135229899        7.5341455395
 C        -2.9306647147        0.6976835818        7.3370429714
 C        -1.5446645207        1.4631146402        7.4522606963
 O        -1.4848687375       -1.3875417519        6.1012896656
 O        -3.8462651020        1.2522174360        6.7186445828
 C        -4.7290543077       -0.9248786671        7.8262471977
 C        -2.3397128856       -1.2219371613        8.7434351057
 C        -1.6459074253        2.9528201590        7.1492764080
 C        -1.9809835808        3.1814821507        5.6731879871
 C        -2.7195951493        4.5352786634        5.4378984109
 C        -2.6805605218        4.8701938804        3.9398422320
 C        -3.9105990030        4.7766349819        3.0449270166
 C        -4.1476615993        4.2703988998        5.8513537639
 C        -2.0171529657        5.6828638418        6.1656964767
 O        -1.6846659802        2.4505211632        4.8000988831
 O        -1.5976871579        5.1834294889        3.4562731450
 C        -3.5263418730        5.0360923657        1.6267955271
 C        -3.2013648950        3.7995054274        0.6996079443
 C        -2.6599902200        4.1559587949       -0.7452792613
 C        -1.0353955069        4.0272541035       -0.6971146308
 C        -0.3380123726        4.4296844782       -2.0508586691
 O        -3.3131262121        2.6633354849        0.9798431905
 O        -0.4920732513        3.6817881080        0.3222468882
 C        -3.1858201775        2.9749726865       -1.7029841788
 C        -3.0877849300        5.5017629042       -1.3364091216
 C         0.7067914323        5.7079852521       -2.0740470116
 C         1.5298563527        5.8865038133       -3.3779888437
 C         3.0679432382        6.1792258221       -3.0724249031
 C         3.7182270352        4.8987476945       -2.3070748056
 C         3.4400989631        3.6018976037       -3.0064060935
 C         3.9361809853        6.3797123880       -4.2820146135
 C         3.1339922977        7.3740725942       -2.0895986368
 O         1.0373601294        5.7626162203       -4.4658130248
 O         4.4136087278        5.1330416218       -1.3684628517
 C         4.4414334517        2.4256930803       -2.7724263880
 C         3.7843369933        1.0251187723       -3.0241877044
 C         4.5009730477       -0.1067830747       -2.2416527669
 C         3.6880651946       -1.4940077574       -2.5181927534
 C         4.3813100832       -2.5413470247       -3.4072307839
 O         2.7000478813        0.9176846090       -3.5626192939
 O         2.7423441802       -1.8761223807       -1.8796010052
 C         5.9798285930       -0.2891107171       -2.3311761421
 C         4.2250167955        0.0849903442       -0.6748853880
 C         3.5556817753       -3.8567365997       -3.5246570378
 C         2.7680612820       -3.7392419301       -4.7832671436
 C         1.9661992482       -5.1173612847       -5.2285040691
 C         0.8078946251       -5.3897210677       -4.1828565241
 C        -0.6276069627       -5.2213574756       -4.7607271580
 C         1.4802126222       -4.9860987738       -6.6689842497
 C         2.8643736230       -6.3511399915       -5.0629155266
 O         2.7001464655       -2.8568122168       -5.5426854519
 O         1.0061480229       -5.5767362416       -3.0077717470
 C        -1.4099307510       -6.5353669165       -4.7837049649
 C        -2.7722504993       -6.3078906875       -5.5407313968
 C        -3.8241825000       -7.4623022753       -5.6721769563
 C        -4.6752052555       -7.7259742759       -4.4074344166
 C        -5.6512504838       -8.9501687257       -4.3865939328
 O        -3.0155509785       -5.2150786617       -5.8903310727
 O        -4.3990337723       -7.1571207961       -3.3761057321
 C        -4.8435839672       -7.0868645169       -6.7824513012
 C        -3.1462354085       -8.7894559446       -6.1102576950
 H         2.3022203499       -0.6812248431        2.7036827675
 H         1.1522410425       -1.4103960292        3.8923461291
 H         1.3330834537       -2.0598654886        2.2768515927
 H        -3.3330510946       -2.5069669745        2.9583495161
 H        -1.9793477498       -2.6858772430        3.9736726891
 H        -0.5907954724        0.5236029717        0.0540725181
 H        -2.1980516229        0.5011627856        0.7150652936
 H        -1.6628630620       -0.8804828573       -0.2431396671
 H        -0.5398336749       -3.1960364675        2.0447866141
 H        -1.9709796415       -2.7702597678        1.0408117190
 H        -0.4461889368       -2.6066385420        0.3823984064
 H        -4.1845935377       -0.6548250624        4.8644756519
 H        -4.3784918599       -2.3552748247        5.1463727937
 H        -1.1620950506        1.2562667959        8.4070627165
 H        -0.7340600261        0.9938360291        6.8076799802
 H        -5.2697087425       -0.6052496105        6.9331947942
 H        -4.9736529576       -0.4146027778        8.7653028921
 H        -4.9939275911       -1.9187678959        8.2159200941
 H        -2.5479521853       -0.6095827040        9.6376069554
 H        -2.4738995062       -2.3513222571        8.7918527790
 H        -1.2776397757       -0.9507829802        8.4137092433
 H        -0.6381542890        3.3406909067        7.3351428644
 H        -2.3727091372        3.5379893815        7.7521582596
 H        -4.3778114123        3.7080919367        3.1774419547
 H        -4.6357221256        5.4909051434        3.3278704021
 H        -4.6827678966        3.4682164944        5.4097844040
 H        -4.6947775099        5.0716205479        5.6540616010
 H        -4.3454110263        4.2056600881        6.9652285037
 H        -1.3998842728        6.2508037406        5.4545997795
 H        -2.7087620245        6.2545645612        6.6688172680
 H        -1.2818686861        5.3572473566        6.8162137629
 H        -4.3330215599        5.4959833120        0.9937140651
 H        -2.5954763873        5.6141283292        1.6291819776
 H         0.2373035646        3.5913591019       -2.4297067420
 H        -1.0884722052        4.6804322902       -2.8084905271
 H        -2.3522245490        2.4468825672       -2.1900240804
 H        -3.8743143745        3.3656207693       -2.4623698316
 H        -3.8527952859        2.4863873109       -1.0122034483
 H        -3.3050562146        5.5252661024       -2.3826013246
 H        -4.0633890038        5.8013654324       -0.8765264758
 H        -2.3081110490        6.1971461485       -1.0642196149
 H         1.4212891813        5.4252864403       -1.2668361070
 H         0.2506969342        6.6172781768       -1.6673871464
 H         2.4513216562        3.4287413428       -2.6505244191
 H         3.3129271413        3.7936087653       -4.1077051285
 H         3.8449278968        5.6340633700       -5.0231153842
 H         4.9393318919        6.4266985026       -3.9259426831
 H         3.6338772427        7.3620114371       -4.6942737403
 H         2.8086831485        7.1035875666       -1.0660099153
 H         4.1058998318        7.7838941333       -2.1279500682
 H         2.6455540102        8.1583764702       -2.5706362442
 H         5.1865318048        2.6021449183       -3.5619370829
 H         4.7821006439        2.4592876275       -1.7751235356
 H         4.8360156058       -2.1707487512       -4.3360379359
 H         5.3813148807       -2.8545436588       -2.9397372001
 H         6.4269835499        0.1545015140       -1.4708537918
 H         6.3913722799        0.3091437548       -3.1698679395
 H         6.1971403875       -1.3405912636       -2.3626608491
 H         3.1668066911        0.0248916831       -0.4415229951
 H         4.6665512251       -0.6906508591        0.0289599864
 H         4.5970709317        1.1200707936       -0.3206061994
 H         2.9443228273       -4.1107749830       -2.7023190406
 H         4.1824501239       -4.7283489099       -3.7514772899
 H        -1.2104242218       -4.5230123292       -4.0782388187
 H        -0.5641507982       -4.8002106300       -5.7974627323
 H         0.8389650460       -5.8125152269       -7.0456065514
 H         2.2714674024       -5.1388294905       -7.3688845310
 H         0.9837289956       -4.0518760880       -6.9055578336
 H         2.3673978807       -7.0773846353       -5.7120311715
 H         3.9173926278       -6.1754374045       -5.3264158492
 H         2.9306378426       -6.7018841498       -3.9969693235
 H        -0.8337914235       -7.3597784436       -5.1476824153
 H        -1.6852745470       -6.7257788124       -3.6440053830
 H        -5.1139266149       -9.8175017145       -4.0088499159
 H        -6.5256742044       -8.7588782039       -3.7968438499
 H        -6.0693855737       -9.2610732097       -5.3758787918
 H        -5.5311513176       -6.2896981077       -6.5315659725
 H        -5.3735794740       -8.0132526499       -6.9710124292
 H        -4.3038831433       -6.8708363976       -7.6189573917
 H        -3.9063222470       -9.5164009317       -6.3719628614
 H        -2.6441502301       -8.7004348174       -7.0521712596
 H        -2.3410090940       -9.1939179172       -5.5656252788
 Na       -1.6694457257        2.4804466728        2.4568574199
