155

 C         1.2561810016       -1.2293917535        2.8377938136
 C         0.1441893481       -0.2966487596        2.4657834658
 C        -1.1819002779       -0.9428572483        1.7676780537
 C        -2.3861821008       -0.6561129423        2.8382962013
 C        -2.8925578894       -1.7905884851        3.7662953649
 C        -1.6027520902       -0.2324352623        0.3884805141
 C        -0.8983337139       -2.4405346353        1.5288434270
 O         0.0947912505        0.8875389134        2.6815029941
 O        -2.9648288639        0.4158749316        2.9527492317
 C        -3.5254200986       -1.4500345918        5.1059810348
 C        -2.5446032225       -1.4791462420        6.2945069396
 C        -3.0039521943       -0.9077907897        7.5657951672
 C        -3.0247410179        0.6998192561        7.1877444959
 C        -1.5958230942        1.3155232729        7.0853300193
 O        -1.3231920547       -1.8301329500        6.0425137752
 O        -4.0195551710        1.3275382083        6.9923810630
 C        -4.4716418311       -1.3998674075        8.0606475202
 C        -2.0759895796       -1.3178275915        8.6827073366
 C        -1.6821757806        2.8349528743        7.0137442876
 C        -2.0647407629        3.4025492353        5.6412315576
 C        -2.9323804566        4.6123899019        5.2964788984
 C        -2.7661932718        4.9369915874        3.7927789283
 C        -3.9413833792        4.6374716935        2.8514687194
 C        -4.3593054882        4.4845008614        5.8248838858
 C        -2.4586146959        5.9087901704        6.0475861009
 O        -1.6135075665        2.7252245657        4.6915050973
 O        -1.7020581242        5.1990866654        3.3104217397
 C        -3.6566428127        5.1299148692        1.4198984415
 C        -3.3866234728        3.9071714621        0.4348711196
 C        -2.7408427974        4.1287387454       -0.9016268388
 C        -1.1582184291        4.0461306150       -0.7382195413
 C        -0.3234434159        4.3809806072       -1.9955044728
 O        -3.6301117834        2.7593994456        0.8988221770
 O        -0.7045775463        3.8991992278        0.3856316469
 C        -3.1307323485        3.0261208006       -1.9542745703
 C        -3.1506603051        5.6001568227       -1.4306445827
 C         0.6801510271        5.6031900234       -1.9377825543
 C         1.6014100521        5.7952980928       -3.1262597090
 C         3.1301950373        6.1062609786       -2.9416001770
 C         3.7344563290        4.7515569888       -2.4122388888
 C         3.3291693985        3.3754684048       -3.0842966522
 C         3.7530610274        6.4479981978       -4.2964830816
 C         3.2269164537        7.3275223406       -2.0093695487
 O         1.2102535139        5.5521289804       -4.2366552134
 O         4.3131903134        4.7027690502       -1.3406092282
 C         4.4094645439        2.3790424765       -2.7400066183
 C         3.8033103065        0.9979614101       -2.7178462385
 C         4.5625419985       -0.1282312092       -1.8412858517
 C         3.8918328788       -1.5452126419       -2.2293751340
 C         4.3496128416       -2.4406369946       -3.3121826552
 O         2.7242727434        0.6759975156       -3.2044387295
 O         2.8554001923       -1.8147330441       -1.6281385459
 C         6.0928939636       -0.1266202896       -2.2356407568
 C         4.2267444977        0.2739892360       -0.3439619240
 C         3.7702439223       -3.8262087181       -3.4946176043
 C         2.8478432439       -3.8490404353       -4.8690722658
 C         1.9762625175       -5.1202585216       -5.3724844500
 C         0.8702629713       -5.4321438511       -4.2450795844
 C        -0.6963738475       -5.1335650427       -4.4940512105
 C         1.4087386228       -4.7908917068       -6.7969075138
 C         2.9706810472       -6.3875468285       -5.4367809000
 O         2.8792840436       -2.8587858515       -5.6188735822
 O         1.1642721454       -5.6490103933       -3.0770497192
 C        -1.4552377072       -6.4766653282       -4.7304986516
 C        -2.7644952666       -6.2444220247       -5.4906017324
 C        -3.6990675356       -7.4565066113       -5.7413616867
 C        -4.6079810355       -7.6566230865       -4.5037433153
 C        -5.5013426414       -8.9230886529       -4.3835328212
 O        -3.1394533392       -5.1406486605       -5.9467179094
 O        -4.4012662464       -6.9881325963       -3.5053671218
 C        -4.6201797354       -7.0338518277       -6.9396331029
 C        -2.9617224117       -8.7224381573       -6.0767719226
 H         1.9427810546       -0.6762081702        3.4679956226
 H         0.8792285242       -2.2136667958        3.3129272491
 H         1.8714100916       -1.3621573500        1.9189842118
 H        -3.5292080870       -2.6202437632        3.2656469979
 H        -2.0372994893       -2.3814282617        4.0495525099
 H        -0.7590246636        0.2964315267       -0.0052197691
 H        -2.3607312218        0.5986752834        0.5561824895
 H        -1.8449835268       -0.9857563868       -0.3975304497
 H        -0.7652140072       -2.8900110175        2.4944659376
 H        -1.7175600329       -2.9287637878        0.9732189076
 H        -0.0004324329       -2.6285530911        0.9467030559
 H        -4.0891250406       -0.4544977575        5.0719474761
 H        -4.3022818565       -2.1942324102        5.2551499724
 H        -0.9283604466        0.8221277335        7.8679576910
 H        -1.2313808311        0.8917206103        6.1433642643
 H        -5.3276625770       -1.1327872100        7.4354772167
 H        -4.5802726532       -1.1290528860        9.0892799339
 H        -4.4397938258       -2.4808336923        8.1821258157
 H        -2.4452425374       -0.7672012258        9.5405307817
 H        -2.1202283128       -2.3652961144        8.7188349565
 H        -1.0677964008       -0.9968231733        8.5522434551
 H        -0.6801444424        3.2695021078        7.1590251968
 H        -2.3935725968        3.1879907188        7.7629355209
 H        -4.0389558222        3.5919025202        2.8441570226
 H        -4.9534291094        5.0371543779        3.2279865588
 H        -4.9056475905        3.6298846432        5.3978705517
 H        -5.1060747193        5.3340819356        5.5738282357
 H        -4.4648760587        4.4031740787        6.8501470957
 H        -1.3937967267        6.1344521510        5.9228944954
 H        -3.1595076231        6.6851909328        5.6191060330
 H        -2.5806700966        5.8882228754        7.1967188724
 H        -4.4726845516        5.6497759133        0.9815390676
 H        -2.6974987123        5.6774698376        1.3838336740
 H         0.2872447693        3.4738710194       -2.1256841820
 H        -0.8486671966        4.5337585528       -2.9279586998
 H        -2.4423263227        3.1114629697       -2.7758388171
 H        -4.1062145002        3.2657348957       -2.3348854808
 H        -3.2266192413        2.0849690002       -1.4104189180
 H        -2.7069128950        5.7799225654       -2.4458465027
 H        -4.1950334025        5.5464278945       -1.5765850123
 H        -2.8574043907        6.3885121720       -0.7292347800
 H         1.2634993861        5.5367237341       -1.0478316332
 H         0.0902559557        6.4645052602       -1.7472476876
 H         2.3320166410        3.0327470777       -2.7254020999
 H         3.3174123833        3.4812544612       -4.1292071392
 H         4.0738089724        5.4976230865       -4.7558707677
 H         4.5552454082        7.1838071701       -4.0888421656
 H         3.0265512857        6.9135300679       -4.9041636052
 H         2.8833510111        7.0199833670       -1.0681064104
 H         4.2553854961        7.7362977270       -2.0654666979
 H         2.7691268361        8.1574798039       -2.5391479050
 H         5.1017664475        2.4704621401       -3.5409199278
 H         4.7923867229        2.5673163311       -1.6972610277
 H         4.2011544836       -1.8114276217       -4.2482945296
 H         5.4144426111       -2.5013818018       -3.4382540513
 H         6.4444441065        0.9611869617       -2.3399219993
 H         6.1904850376       -0.4965378084       -3.2547781917
 H         6.6334435925       -0.8295186252       -1.5513018684
 H         3.1735263202        0.4745001411       -0.0865788545
 H         4.4639950585       -0.5406874004        0.3028188489
 H         4.8262346715        1.0643293331        0.0154718983
 H         3.0429919335       -4.2243748856       -2.7171784978
 H         4.5589658236       -4.5983234023       -3.5981852384
 H        -0.9916274969       -4.7893671650       -3.5085538594
 H        -0.9020606287       -4.3847522909       -5.2610985668
 H         0.8571168992       -5.5705331124       -7.2308873624
 H         2.2047087753       -4.6550632567       -7.5491928138
 H         0.7350186830       -3.9672015828       -6.7761161668
 H         2.3548407097       -7.2908212455       -5.5922582699
 H         3.6627680701       -6.2846445265       -6.3142664946
 H         3.6500808499       -6.4094461477       -4.5859305898
 H        -0.9003053068       -7.2469538639       -5.2988437415
 H        -1.7211742374       -6.8388328674       -3.8102894082
 H        -4.8720507331       -9.6507227136       -3.9066764191
 H        -6.4872578158       -8.7516034247       -3.9198238641
 H        -5.8387868103       -9.3677611746       -5.2902368550
 H        -5.2611689435       -6.1992834646       -6.6927778572
 H        -5.2211863250       -7.8601166797       -7.2768360760
 H        -3.8692658790       -6.7784430257       -7.7482364334
 H        -3.5556995448       -9.5455550194       -6.3514641373
 H        -2.3103788295       -8.5695077935       -6.9677033994
 H        -2.2162955342       -9.0254088054       -5.3525263783
 Na       -1.5873940477        2.4607880461        2.3131030257
